MODEL 1
REMARK VINA RESULT:     -12.4      0.000      0.000
REMARK SMILES O=C(NCc1ccccc1)c1c(C(F)(F)F)ccc(CS(=O)(=O)c2ccccc2)c1F
REMARK SMILES IDX 11 1 30 2 31 3 19 4 18 5 17 6 12 7 2 8 1 9 3 10 4 12 5 13
REMARK SMILES IDX 6 14 10 15 7 16 9 17 8 18 13 19 14 20 15 21 16 22 20 23
REMARK SMILES IDX 21 24 22 25 23 26 24 27 25 28 29 29 26 30 28 31 27 32
REMARK H PARENT 3 11
REMARK Flexibility Score: inf
ROOT
ATOM      1  C   UNL     1     130.867 119.316 132.788  1.00  0.00     0.088 A 
ATOM      2  C   UNL     1     130.124 119.151 133.965  1.00  0.00     0.140 A 
ATOM      3  F   UNL     1     129.472 117.999 134.196  1.00  0.00    -0.206 F 
ATOM      4  C   UNL     1     130.048 120.153 134.939  1.00  0.00     0.004 A 
ATOM      5  C   UNL     1     130.722 121.356 134.713  1.00  0.00     0.008 A 
ATOM      6  C   UNL     1     131.454 121.542 133.539  1.00  0.00     0.014 A 
ATOM      7  C   UNL     1     131.535 120.533 132.557  1.00  0.00     0.071 A 
ENDROOT
BRANCH   1   8
ATOM      8  C   UNL     1     130.988 118.186 131.833  1.00  0.00     0.255 C 
ATOM      9  O   UNL     1     132.089 117.876 131.400  1.00  0.00    -0.269 OA
ATOM     10  N   UNL     1     129.828 117.535 131.487  1.00  0.00    -0.348 N 
ATOM     11  H   UNL     1     128.974 117.715 131.999  1.00  0.00     0.164 HD
BRANCH  10  12
ATOM     12  C   UNL     1     129.868 116.356 130.655  1.00  0.00     0.152 C 
BRANCH  12  13
ATOM     13  C   UNL     1     129.108 115.229 131.297  1.00  0.00    -0.029 A 
ATOM     14  C   UNL     1     127.860 114.835 130.793  1.00  0.00     0.005 A 
ATOM     15  C   UNL     1     129.611 114.591 132.441  1.00  0.00     0.005 A 
ATOM     16  C   UNL     1     127.140 113.810 131.409  1.00  0.00     0.000 A 
ATOM     17  C   UNL     1     128.888 113.566 133.055  1.00  0.00     0.000 A 
ATOM     18  C   UNL     1     127.654 113.176 132.538  1.00  0.00     0.000 A 
ENDBRANCH  12  13
ENDBRANCH  10  12
ENDBRANCH   1   8
BRANCH   7  19
ATOM     19  C   UNL     1     132.319 120.798 131.292  1.00  0.00     0.417 C 
ATOM     20  F   UNL     1     131.580 120.521 130.174  1.00  0.00    -0.166 F 
ATOM     21  F   UNL     1     133.429 120.023 131.166  1.00  0.00    -0.166 F 
ATOM     22  F   UNL     1     132.696 122.094 131.148  1.00  0.00    -0.166 F 
ENDBRANCH   7  19
BRANCH   4  23
ATOM     23  C   UNL     1     129.282 119.915 136.215  1.00  0.00     0.180 C 
BRANCH  23  24
ATOM     24  S   UNL     1     130.152 118.781 137.286  1.00  0.00     0.182 S 
ATOM     25  O   UNL     1     130.408 119.469 138.539  1.00  0.00    -0.223 OA
ATOM     26  O   UNL     1     131.257 118.195 136.545  1.00  0.00    -0.223 OA
BRANCH  24  27
ATOM     27  C   UNL     1     128.988 117.485 137.640  1.00  0.00     0.067 A 
ATOM     28  C   UNL     1     128.143 117.606 138.747  1.00  0.00     0.020 A 
ATOM     29  C   UNL     1     128.938 116.353 136.820  1.00  0.00     0.020 A 
ATOM     30  C   UNL     1     127.214 116.601 139.010  1.00  0.00     0.001 A 
ATOM     31  C   UNL     1     128.002 115.355 137.089  1.00  0.00     0.001 A 
ATOM     32  C   UNL     1     127.139 115.482 138.180  1.00  0.00     0.000 A 
ENDBRANCH  24  27
ENDBRANCH  23  24
ENDBRANCH   4  23
TORSDOF 7
ENDMDL
MODEL 2
REMARK VINA RESULT:     -12.4      0.768      1.064
REMARK SMILES O=C(NCc1ccccc1)c1c(C(F)(F)F)ccc(CS(=O)(=O)c2ccccc2)c1F
REMARK SMILES IDX 11 1 30 2 31 3 19 4 18 5 17 6 12 7 2 8 1 9 3 10 4 12 5 13
REMARK SMILES IDX 6 14 10 15 7 16 9 17 8 18 13 19 14 20 15 21 16 22 20 23
REMARK SMILES IDX 21 24 22 25 23 26 24 27 25 28 29 29 26 30 28 31 27 32
REMARK H PARENT 3 11
REMARK Flexibility Score: inf
ROOT
ATOM      1  C   UNL     1     130.616 118.880 132.753  1.00  0.00     0.088 A 
ATOM      2  C   UNL     1     129.942 118.876 133.982  1.00  0.00     0.140 A 
ATOM      3  F   UNL     1     129.203 117.814 134.343  1.00  0.00    -0.206 F 
ATOM      4  C   UNL     1     130.025 119.950 134.876  1.00  0.00     0.004 A 
ATOM      5  C   UNL     1     130.791 121.061 134.514  1.00  0.00     0.008 A 
ATOM      6  C   UNL     1     131.456 121.087 133.287  1.00  0.00     0.014 A 
ATOM      7  C   UNL     1     131.377 120.005 132.386  1.00  0.00     0.071 A 
ENDROOT
BRANCH   1   8
ATOM      8  C   UNL     1     130.566 117.677 131.886  1.00  0.00     0.255 C 
ATOM      9  O   UNL     1     131.607 117.112 131.576  1.00  0.00    -0.269 OA
ATOM     10  N   UNL     1     129.325 117.253 131.477  1.00  0.00    -0.348 N 
ATOM     11  H   UNL     1     128.492 117.647 131.896  1.00  0.00     0.164 HD
BRANCH  10  12
ATOM     12  C   UNL     1     129.177 116.028 130.727  1.00  0.00     0.152 C 
BRANCH  12  13
ATOM     13  C   UNL     1     128.227 115.093 131.423  1.00  0.00    -0.029 A 
ATOM     14  C   UNL     1     127.955 113.826 130.887  1.00  0.00     0.005 A 
ATOM     15  C   UNL     1     127.559 115.494 132.589  1.00  0.00     0.005 A 
ATOM     16  C   UNL     1     127.050 112.971 131.515  1.00  0.00     0.000 A 
ATOM     17  C   UNL     1     126.653 114.637 133.216  1.00  0.00     0.000 A 
ATOM     18  C   UNL     1     126.400 113.375 132.680  1.00  0.00     0.000 A 
ENDBRANCH  12  13
ENDBRANCH  10  12
ENDBRANCH   1   8
BRANCH   7  19
ATOM     19  C   UNL     1     132.095 120.099 131.059  1.00  0.00     0.417 C 
ATOM     20  F   UNL     1     132.474 121.384 130.780  1.00  0.00    -0.166 F 
ATOM     21  F   UNL     1     131.328 119.733 129.997  1.00  0.00    -0.166 F 
ATOM     22  F   UNL     1     133.245 119.378 131.012  1.00  0.00    -0.166 F 
ENDBRANCH   7  19
BRANCH   4  23
ATOM     23  C   UNL     1     129.328 119.883 136.210  1.00  0.00     0.180 C 
BRANCH  23  24
ATOM     24  S   UNL     1     130.167 118.762 137.319  1.00  0.00     0.182 S 
ATOM     25  O   UNL     1     130.441 119.483 138.550  1.00  0.00    -0.223 OA
ATOM     26  O   UNL     1     131.256 118.123 136.599  1.00  0.00    -0.223 OA
BRANCH  24  27
ATOM     27  C   UNL     1     128.969 117.509 137.713  1.00  0.00     0.067 A 
ATOM     28  C   UNL     1     128.113 117.698 138.802  1.00  0.00     0.020 A 
ATOM     29  C   UNL     1     128.903 116.344 136.943  1.00  0.00     0.020 A 
ATOM     30  C   UNL     1     127.157 116.727 139.096  1.00  0.00     0.001 A 
ATOM     31  C   UNL     1     127.940 115.380 137.243  1.00  0.00     0.001 A 
ATOM     32  C   UNL     1     127.067 115.575 138.315  1.00  0.00     0.000 A 
ENDBRANCH  24  27
ENDBRANCH  23  24
ENDBRANCH   4  23
TORSDOF 7
ENDMDL
MODEL 3
REMARK VINA RESULT:     -12.3      0.920      1.272
REMARK SMILES O=C(NCc1ccccc1)c1c(C(F)(F)F)ccc(CS(=O)(=O)c2ccccc2)c1F
REMARK SMILES IDX 11 1 30 2 31 3 19 4 18 5 17 6 12 7 2 8 1 9 3 10 4 12 5 13
REMARK SMILES IDX 6 14 10 15 7 16 9 17 8 18 13 19 14 20 15 21 16 22 20 23
REMARK SMILES IDX 21 24 22 25 23 26 24 27 25 28 29 29 26 30 28 31 27 32
REMARK H PARENT 3 11
REMARK Flexibility Score: inf
ROOT
ATOM      1  C   UNL     1     130.709 118.949 132.642  1.00  0.00     0.088 A 
ATOM      2  C   UNL     1     130.037 119.010 133.870  1.00  0.00     0.140 A 
ATOM      3  F   UNL     1     129.270 117.982 134.270  1.00  0.00    -0.206 F 
ATOM      4  C   UNL     1     130.149 120.114 134.722  1.00  0.00     0.004 A 
ATOM      5  C   UNL     1     130.944 121.190 134.318  1.00  0.00     0.008 A 
ATOM      6  C   UNL     1     131.609 121.152 133.091  1.00  0.00     0.014 A 
ATOM      7  C   UNL     1     131.500 120.039 132.232  1.00  0.00     0.071 A 
ENDROOT
BRANCH   1   8
ATOM      8  C   UNL     1     130.627 117.715 131.821  1.00  0.00     0.255 C 
ATOM      9  O   UNL     1     131.651 117.109 131.535  1.00  0.00    -0.269 OA
ATOM     10  N   UNL     1     129.375 117.311 131.425  1.00  0.00    -0.348 N 
ATOM     11  H   UNL     1     128.553 117.744 131.827  1.00  0.00     0.164 HD
BRANCH  10  12
ATOM     12  C   UNL     1     129.193 116.063 130.722  1.00  0.00     0.152 C 
BRANCH  12  13
ATOM     13  C   UNL     1     128.193 115.195 131.436  1.00  0.00    -0.029 A 
ATOM     14  C   UNL     1     127.511 115.676 132.562  1.00  0.00     0.005 A 
ATOM     15  C   UNL     1     127.969 113.876 131.017  1.00  0.00     0.005 A 
ATOM     16  C   UNL     1     126.607 114.860 133.243  1.00  0.00     0.000 A 
ATOM     17  C   UNL     1     127.064 113.061 131.701  1.00  0.00     0.000 A 
ATOM     18  C   UNL     1     126.383 113.554 132.812  1.00  0.00     0.000 A 
ENDBRANCH  12  13
ENDBRANCH  10  12
ENDBRANCH   1   8
BRANCH   7  19
ATOM     19  C   UNL     1     132.220 120.062 130.902  1.00  0.00     0.417 C 
ATOM     20  F   UNL     1     132.640 121.324 130.578  1.00  0.00    -0.166 F 
ATOM     21  F   UNL     1     131.441 119.683 129.854  1.00  0.00    -0.166 F 
ATOM     22  F   UNL     1     133.346 119.304 130.881  1.00  0.00    -0.166 F 
ENDBRANCH   7  19
BRANCH   4  23
ATOM     23  C   UNL     1     129.452 120.117 136.057  1.00  0.00     0.180 C 
BRANCH  23  24
ATOM     24  S   UNL     1     130.107 118.847 137.128  1.00  0.00     0.182 S 
ATOM     25  O   UNL     1     130.157 119.389 138.475  1.00  0.00    -0.223 OA
ATOM     26  O   UNL     1     131.313 118.304 136.524  1.00  0.00    -0.223 OA
BRANCH  24  27
ATOM     27  C   UNL     1     128.879 117.562 137.137  1.00  0.00     0.067 A 
ATOM     28  C   UNL     1     127.530 117.904 137.274  1.00  0.00     0.020 A 
ATOM     29  C   UNL     1     129.271 116.225 137.022  1.00  0.00     0.020 A 
ATOM     30  C   UNL     1     126.565 116.898 137.256  1.00  0.00     0.001 A 
ATOM     31  C   UNL     1     128.297 115.226 137.001  1.00  0.00     0.001 A 
ATOM     32  C   UNL     1     126.948 115.564 137.113  1.00  0.00     0.000 A 
ENDBRANCH  24  27
ENDBRANCH  23  24
ENDBRANCH   4  23
TORSDOF 7
ENDMDL
MODEL 4
REMARK VINA RESULT:     -12.3      0.747      1.268
REMARK SMILES O=C(NCc1ccccc1)c1c(C(F)(F)F)ccc(CS(=O)(=O)c2ccccc2)c1F
REMARK SMILES IDX 11 1 30 2 31 3 19 4 18 5 17 6 12 7 2 8 1 9 3 10 4 12 5 13
REMARK SMILES IDX 6 14 10 15 7 16 9 17 8 18 13 19 14 20 15 21 16 22 20 23
REMARK SMILES IDX 21 24 22 25 23 26 24 27 25 28 29 29 26 30 28 31 27 32
REMARK H PARENT 3 11
REMARK Flexibility Score: inf
ROOT
ATOM      1  C   UNL     1     130.643 118.937 132.753  1.00  0.00     0.088 A 
ATOM      2  C   UNL     1     129.964 118.927 133.979  1.00  0.00     0.140 A 
ATOM      3  F   UNL     1     129.219 117.865 134.329  1.00  0.00    -0.206 F 
ATOM      4  C   UNL     1     130.048 119.994 134.881  1.00  0.00     0.004 A 
ATOM      5  C   UNL     1     130.820 121.104 134.531  1.00  0.00     0.008 A 
ATOM      6  C   UNL     1     131.491 121.137 133.306  1.00  0.00     0.014 A 
ATOM      7  C   UNL     1     131.411 120.062 132.398  1.00  0.00     0.071 A 
ENDROOT
BRANCH   1   8
ATOM      8  C   UNL     1     130.592 117.740 131.877  1.00  0.00     0.255 C 
ATOM      9  O   UNL     1     131.633 117.185 131.551  1.00  0.00    -0.269 OA
ATOM     10  N   UNL     1     129.349 117.311 131.479  1.00  0.00    -0.348 N 
ATOM     11  H   UNL     1     128.519 117.695 131.910  1.00  0.00     0.164 HD
BRANCH  10  12
ATOM     12  C   UNL     1     129.201 116.091 130.721  1.00  0.00     0.152 C 
BRANCH  12  13
ATOM     13  C   UNL     1     128.198 115.181 131.374  1.00  0.00    -0.029 A 
ATOM     14  C   UNL     1     127.429 115.632 132.456  1.00  0.00     0.005 A 
ATOM     15  C   UNL     1     128.055 113.854 130.945  1.00  0.00     0.005 A 
ATOM     16  C   UNL     1     126.521 114.778 133.083  1.00  0.00     0.000 A 
ATOM     17  C   UNL     1     127.146 113.001 131.574  1.00  0.00     0.000 A 
ATOM     18  C   UNL     1     126.379 113.464 132.641  1.00  0.00     0.000 A 
ENDBRANCH  12  13
ENDBRANCH  10  12
ENDBRANCH   1   8
BRANCH   7  19
ATOM     19  C   UNL     1     132.135 120.162 131.074  1.00  0.00     0.417 C 
ATOM     20  F   UNL     1     131.341 119.762 130.033  1.00  0.00    -0.166 F 
ATOM     21  F   UNL     1     133.232 119.362 130.991  1.00  0.00    -0.166 F 
ATOM     22  F   UNL     1     132.515 121.426 130.757  1.00  0.00    -0.166 F 
ENDBRANCH   7  19
BRANCH   4  23
ATOM     23  C   UNL     1     129.345 119.920 136.212  1.00  0.00     0.180 C 
BRANCH  23  24
ATOM     24  S   UNL     1     130.171 118.783 137.314  1.00  0.00     0.182 S 
ATOM     25  O   UNL     1     130.456 119.495 138.547  1.00  0.00    -0.223 OA
ATOM     26  O   UNL     1     131.250 118.134 136.589  1.00  0.00    -0.223 OA
BRANCH  24  27
ATOM     27  C   UNL     1     128.957 117.545 137.705  1.00  0.00     0.067 A 
ATOM     28  C   UNL     1     128.861 116.403 136.905  1.00  0.00     0.020 A 
ATOM     29  C   UNL     1     128.102 117.730 138.796  1.00  0.00     0.020 A 
ATOM     30  C   UNL     1     127.925 115.420 137.226  1.00  0.00     0.001 A 
ATOM     31  C   UNL     1     127.172 116.739 139.112  1.00  0.00     0.001 A 
ATOM     32  C   UNL     1     127.088 115.586 138.330  1.00  0.00     0.000 A 
ENDBRANCH  24  27
ENDBRANCH  23  24
ENDBRANCH   4  23
TORSDOF 7
ENDMDL
MODEL 5
REMARK VINA RESULT:     -12.2      0.709      1.257
REMARK SMILES O=C(NCc1ccccc1)c1c(C(F)(F)F)ccc(CS(=O)(=O)c2ccccc2)c1F
REMARK SMILES IDX 11 1 30 2 31 3 19 4 18 5 17 6 12 7 2 8 1 9 3 10 4 12 5 13
REMARK SMILES IDX 6 14 10 15 7 16 9 17 8 18 13 19 14 20 15 21 16 22 20 23
REMARK SMILES IDX 21 24 22 25 23 26 24 27 25 28 29 29 26 30 28 31 27 32
REMARK H PARENT 3 11
REMARK Flexibility Score: inf
ROOT
ATOM      1  C   UNL     1     130.874 119.607 132.887  1.00  0.00     0.088 A 
ATOM      2  C   UNL     1     130.112 119.412 134.047  1.00  0.00     0.140 A 
ATOM      3  F   UNL     1     129.304 118.343 134.150  1.00  0.00    -0.206 F 
ATOM      4  C   UNL     1     130.174 120.293 135.131  1.00  0.00     0.004 A 
ATOM      5  C   UNL     1     131.011 121.408 135.038  1.00  0.00     0.008 A 
ATOM      6  C   UNL     1     131.766 121.626 133.883  1.00  0.00     0.014 A 
ATOM      7  C   UNL     1     131.708 120.737 132.790  1.00  0.00     0.071 A 
ENDROOT
BRANCH   1   8
ATOM      8  C   UNL     1     130.839 118.590 131.805  1.00  0.00     0.255 C 
ATOM      9  O   UNL     1     130.647 118.944 130.650  1.00  0.00    -0.269 OA
ATOM     10  N   UNL     1     131.034 117.281 132.173  1.00  0.00    -0.348 N 
ATOM     11  H   UNL     1     131.357 117.060 133.107  1.00  0.00     0.164 HD
BRANCH  10  12
ATOM     12  C   UNL     1     131.128 116.244 131.174  1.00  0.00     0.152 C 
BRANCH  12  13
ATOM     13  C   UNL     1     130.084 115.187 131.408  1.00  0.00    -0.029 A 
ATOM     14  C   UNL     1     129.274 114.742 130.354  1.00  0.00     0.005 A 
ATOM     15  C   UNL     1     129.869 114.670 132.694  1.00  0.00     0.005 A 
ATOM     16  C   UNL     1     128.284 113.785 130.577  1.00  0.00     0.000 A 
ATOM     17  C   UNL     1     128.877 113.713 132.915  1.00  0.00     0.000 A 
ATOM     18  C   UNL     1     128.087 113.270 131.857  1.00  0.00     0.000 A 
ENDBRANCH  12  13
ENDBRANCH  10  12
ENDBRANCH   1   8
BRANCH   7  19
ATOM     19  C   UNL     1     132.526 121.035 131.554  1.00  0.00     0.417 C 
ATOM     20  F   UNL     1     133.252 119.946 131.155  1.00  0.00    -0.166 F 
ATOM     21  F   UNL     1     133.452 122.014 131.737  1.00  0.00    -0.166 F 
ATOM     22  F   UNL     1     131.775 121.368 130.473  1.00  0.00    -0.166 F 
ENDBRANCH   7  19
BRANCH   4  23
ATOM     23  C   UNL     1     129.378 120.018 136.380  1.00  0.00     0.180 C 
BRANCH  23  24
ATOM     24  S   UNL     1     130.164 118.764 137.381  1.00  0.00     0.182 S 
ATOM     25  O   UNL     1     130.406 119.338 138.694  1.00  0.00    -0.223 OA
ATOM     26  O   UNL     1     131.267 118.192 136.628  1.00  0.00    -0.223 OA
BRANCH  24  27
ATOM     27  C   UNL     1     128.936 117.497 137.594  1.00  0.00     0.067 A 
ATOM     28  C   UNL     1     128.883 116.434 136.687  1.00  0.00     0.020 A 
ATOM     29  C   UNL     1     128.027 117.581 138.653  1.00  0.00     0.020 A 
ATOM     30  C   UNL     1     127.935 115.428 136.868  1.00  0.00     0.001 A 
ATOM     31  C   UNL     1     127.085 116.567 138.828  1.00  0.00     0.001 A 
ATOM     32  C   UNL     1     127.044 115.491 137.939  1.00  0.00     0.000 A 
ENDBRANCH  24  27
ENDBRANCH  23  24
ENDBRANCH   4  23
TORSDOF 7
ENDMDL
MODEL 6
REMARK VINA RESULT:     -12.1      0.754      1.386
REMARK SMILES O=C(NCc1ccccc1)c1c(C(F)(F)F)ccc(CS(=O)(=O)c2ccccc2)c1F
REMARK SMILES IDX 11 1 30 2 31 3 19 4 18 5 17 6 12 7 2 8 1 9 3 10 4 12 5 13
REMARK SMILES IDX 6 14 10 15 7 16 9 17 8 18 13 19 14 20 15 21 16 22 20 23
REMARK SMILES IDX 21 24 22 25 23 26 24 27 25 28 29 29 26 30 28 31 27 32
REMARK H PARENT 3 11
REMARK Flexibility Score: inf
ROOT
ATOM      1  C   UNL     1     130.684 118.957 132.696  1.00  0.00     0.088 A 
ATOM      2  C   UNL     1     130.015 118.959 133.927  1.00  0.00     0.140 A 
ATOM      3  F   UNL     1     129.275 117.899 134.294  1.00  0.00    -0.206 F 
ATOM      4  C   UNL     1     130.104 120.035 134.817  1.00  0.00     0.004 A 
ATOM      5  C   UNL     1     130.871 121.143 134.450  1.00  0.00     0.008 A 
ATOM      6  C   UNL     1     131.532 121.164 133.219  1.00  0.00     0.014 A 
ATOM      7  C   UNL     1     131.446 120.079 132.322  1.00  0.00     0.071 A 
ENDROOT
BRANCH   1   8
ATOM      8  C   UNL     1     130.628 117.751 131.832  1.00  0.00     0.255 C 
ATOM      9  O   UNL     1     131.668 117.197 131.500  1.00  0.00    -0.269 OA
ATOM     10  N   UNL     1     129.383 117.313 131.452  1.00  0.00    -0.348 N 
ATOM     11  H   UNL     1     128.556 117.698 131.889  1.00  0.00     0.164 HD
BRANCH  10  12
ATOM     12  C   UNL     1     129.231 116.085 130.709  1.00  0.00     0.152 C 
BRANCH  12  13
ATOM     13  C   UNL     1     128.275 115.158 131.407  1.00  0.00    -0.029 A 
ATOM     14  C   UNL     1     128.063 113.859 130.923  1.00  0.00     0.005 A 
ATOM     15  C   UNL     1     127.542 115.596 132.520  1.00  0.00     0.005 A 
ATOM     16  C   UNL     1     127.152 113.010 131.552  1.00  0.00     0.000 A 
ATOM     17  C   UNL     1     126.631 114.744 133.147  1.00  0.00     0.000 A 
ATOM     18  C   UNL     1     126.438 113.452 132.664  1.00  0.00     0.000 A 
ENDBRANCH  12  13
ENDBRANCH  10  12
ENDBRANCH   1   8
BRANCH   7  19
ATOM     19  C   UNL     1     132.160 120.167 130.992  1.00  0.00     0.417 C 
ATOM     20  F   UNL     1     133.283 119.384 130.970  1.00  0.00    -0.166 F 
ATOM     21  F   UNL     1     132.609 121.415 130.695  1.00  0.00    -0.166 F 
ATOM     22  F   UNL     1     131.412 119.732 129.945  1.00  0.00    -0.166 F 
ENDBRANCH   7  19
BRANCH   4  23
ATOM     23  C   UNL     1     129.412 119.974 136.154  1.00  0.00     0.180 C 
BRANCH  23  24
ATOM     24  S   UNL     1     130.259 118.863 137.267  1.00  0.00     0.182 S 
ATOM     25  O   UNL     1     130.604 119.615 138.461  1.00  0.00    -0.223 OA
ATOM     26  O   UNL     1     131.298 118.166 136.528  1.00  0.00    -0.223 OA
BRANCH  24  27
ATOM     27  C   UNL     1     129.039 117.664 137.750  1.00  0.00     0.067 A 
ATOM     28  C   UNL     1     128.880 116.502 136.989  1.00  0.00     0.020 A 
ATOM     29  C   UNL     1     128.241 117.898 138.875  1.00  0.00     0.020 A 
ATOM     30  C   UNL     1     127.941 115.551 137.382  1.00  0.00     0.001 A 
ATOM     31  C   UNL     1     127.307 116.938 139.262  1.00  0.00     0.001 A 
ATOM     32  C   UNL     1     127.161 115.765 138.518  1.00  0.00     0.000 A 
ENDBRANCH  24  27
ENDBRANCH  23  24
ENDBRANCH   4  23
TORSDOF 7
ENDMDL
MODEL 7
REMARK VINA RESULT:     -12.1      1.147      1.430
REMARK SMILES O=C(NCc1ccccc1)c1c(C(F)(F)F)ccc(CS(=O)(=O)c2ccccc2)c1F
REMARK SMILES IDX 11 1 30 2 31 3 19 4 18 5 17 6 12 7 2 8 1 9 3 10 4 12 5 13
REMARK SMILES IDX 6 14 10 15 7 16 9 17 8 18 13 19 14 20 15 21 16 22 20 23
REMARK SMILES IDX 21 24 22 25 23 26 24 27 25 28 29 29 26 30 28 31 27 32
REMARK H PARENT 3 11
REMARK Flexibility Score: inf
ROOT
ATOM      1  C   UNL     1     131.277 119.196 132.597  1.00  0.00     0.088 A 
ATOM      2  C   UNL     1     130.842 118.998 133.914  1.00  0.00     0.140 A 
ATOM      3  F   UNL     1     130.386 117.794 134.300  1.00  0.00    -0.206 F 
ATOM      4  C   UNL     1     130.883 120.020 134.870  1.00  0.00     0.004 A 
ATOM      5  C   UNL     1     131.357 121.276 134.483  1.00  0.00     0.008 A 
ATOM      6  C   UNL     1     131.780 121.494 133.170  1.00  0.00     0.014 A 
ATOM      7  C   UNL     1     131.743 120.466 132.207  1.00  0.00     0.071 A 
ENDROOT
BRANCH   1   8
ATOM      8  C   UNL     1     131.297 118.052 131.651  1.00  0.00     0.255 C 
ATOM      9  O   UNL     1     132.359 117.691 131.163  1.00  0.00    -0.269 OA
ATOM     10  N   UNL     1     130.094 117.448 131.378  1.00  0.00    -0.348 N 
ATOM     11  H   UNL     1     129.278 117.670 131.933  1.00  0.00     0.164 HD
BRANCH  10  12
ATOM     12  C   UNL     1     130.038 116.260 130.559  1.00  0.00     0.152 C 
BRANCH  12  13
ATOM     13  C   UNL     1     129.280 115.168 131.263  1.00  0.00    -0.029 A 
ATOM     14  C   UNL     1     128.018 114.767 130.800  1.00  0.00     0.005 A 
ATOM     15  C   UNL     1     129.798 114.573 132.422  1.00  0.00     0.005 A 
ATOM     16  C   UNL     1     127.300 113.777 131.471  1.00  0.00     0.000 A 
ATOM     17  C   UNL     1     129.078 113.583 133.092  1.00  0.00     0.000 A 
ATOM     18  C   UNL     1     127.830 113.184 132.615  1.00  0.00     0.000 A 
ENDBRANCH  12  13
ENDBRANCH  10  12
ENDBRANCH   1   8
BRANCH   7  19
ATOM     19  C   UNL     1     132.187 120.765 130.793  1.00  0.00     0.417 C 
ATOM     20  F   UNL     1     132.162 122.108 130.530  1.00  0.00    -0.166 F 
ATOM     21  F   UNL     1     131.384 120.218 129.842  1.00  0.00    -0.166 F 
ATOM     22  F   UNL     1     133.463 120.383 130.532  1.00  0.00    -0.166 F 
ENDBRANCH   7  19
BRANCH   4  23
ATOM     23  C   UNL     1     130.456 119.750 136.289  1.00  0.00     0.180 C 
BRANCH  23  24
ATOM     24  S   UNL     1     128.687 119.915 136.471  1.00  0.00     0.182 S 
ATOM     25  O   UNL     1     128.110 119.953 135.139  1.00  0.00    -0.223 OA
ATOM     26  O   UNL     1     128.414 120.993 137.407  1.00  0.00    -0.223 OA
BRANCH  24  27
ATOM     27  C   UNL     1     128.150 118.396 137.221  1.00  0.00     0.067 A 
ATOM     28  C   UNL     1     128.219 118.255 138.610  1.00  0.00     0.020 A 
ATOM     29  C   UNL     1     127.678 117.353 136.417  1.00  0.00     0.020 A 
ATOM     30  C   UNL     1     127.774 117.072 139.200  1.00  0.00     0.001 A 
ATOM     31  C   UNL     1     127.231 116.176 137.017  1.00  0.00     0.001 A 
ATOM     32  C   UNL     1     127.276 116.039 138.406  1.00  0.00     0.000 A 
ENDBRANCH  24  27
ENDBRANCH  23  24
ENDBRANCH   4  23
TORSDOF 7
ENDMDL
MODEL 8
REMARK VINA RESULT:     -12.1      0.897      1.612
REMARK SMILES O=C(NCc1ccccc1)c1c(C(F)(F)F)ccc(CS(=O)(=O)c2ccccc2)c1F
REMARK SMILES IDX 11 1 30 2 31 3 19 4 18 5 17 6 12 7 2 8 1 9 3 10 4 12 5 13
REMARK SMILES IDX 6 14 10 15 7 16 9 17 8 18 13 19 14 20 15 21 16 22 20 23
REMARK SMILES IDX 21 24 22 25 23 26 24 27 25 28 29 29 26 30 28 31 27 32
REMARK H PARENT 3 11
REMARK Flexibility Score: inf
ROOT
ATOM      1  C   UNL     1     130.980 119.776 132.735  1.00  0.00     0.088 A 
ATOM      2  C   UNL     1     130.179 119.652 133.879  1.00  0.00     0.140 A 
ATOM      3  F   UNL     1     129.311 118.633 133.987  1.00  0.00    -0.206 F 
ATOM      4  C   UNL     1     130.265 120.556 134.943  1.00  0.00     0.004 A 
ATOM      5  C   UNL     1     131.165 121.620 134.845  1.00  0.00     0.008 A 
ATOM      6  C   UNL     1     131.958 121.767 133.705  1.00  0.00     0.014 A 
ATOM      7  C   UNL     1     131.877 120.855 132.633  1.00  0.00     0.071 A 
ENDROOT
BRANCH   1   8
ATOM      8  C   UNL     1     130.913 118.736 131.677  1.00  0.00     0.255 C 
ATOM      9  O   UNL     1     130.756 119.070 130.511  1.00  0.00    -0.269 OA
ATOM     10  N   UNL     1     131.042 117.429 132.079  1.00  0.00    -0.348 N 
ATOM     11  H   UNL     1     131.340 117.216 133.022  1.00  0.00     0.164 HD
BRANCH  10  12
ATOM     12  C   UNL     1     131.103 116.364 131.106  1.00  0.00     0.152 C 
BRANCH  12  13
ATOM     13  C   UNL     1     130.041 115.335 131.380  1.00  0.00    -0.029 A 
ATOM     14  C   UNL     1     130.025 114.635 132.594  1.00  0.00     0.005 A 
ATOM     15  C   UNL     1     129.083 115.024 130.404  1.00  0.00     0.005 A 
ATOM     16  C   UNL     1     129.059 113.658 132.836  1.00  0.00     0.000 A 
ATOM     17  C   UNL     1     128.117 114.045 130.648  1.00  0.00     0.000 A 
ATOM     18  C   UNL     1     128.105 113.365 131.864  1.00  0.00     0.000 A 
ENDBRANCH  12  13
ENDBRANCH  10  12
ENDBRANCH   1   8
BRANCH   7  19
ATOM     19  C   UNL     1     132.740 121.077 131.411  1.00  0.00     0.417 C 
ATOM     20  F   UNL     1     133.691 122.037 131.633  1.00  0.00    -0.166 F 
ATOM     21  F   UNL     1     132.050 121.526 130.330  1.00  0.00    -0.166 F 
ATOM     22  F   UNL     1     133.439 119.976 131.033  1.00  0.00    -0.166 F 
ENDBRANCH   7  19
BRANCH   4  23
ATOM     23  C   UNL     1     129.424 120.357 136.178  1.00  0.00     0.180 C 
BRANCH  23  24
ATOM     24  S   UNL     1     130.095 119.064 137.211  1.00  0.00     0.182 S 
ATOM     25  O   UNL     1     130.546 119.678 138.447  1.00  0.00    -0.223 OA
ATOM     26  O   UNL     1     131.020 118.269 136.421  1.00  0.00    -0.223 OA
BRANCH  24  27
ATOM     27  C   UNL     1     128.709 118.031 137.627  1.00  0.00     0.067 A 
ATOM     28  C   UNL     1     127.855 117.589 136.613  1.00  0.00     0.020 A 
ATOM     29  C   UNL     1     128.479 117.682 138.962  1.00  0.00     0.020 A 
ATOM     30  C   UNL     1     126.783 116.759 136.937  1.00  0.00     0.001 A 
ATOM     31  C   UNL     1     127.405 116.848 139.275  1.00  0.00     0.001 A 
ATOM     32  C   UNL     1     126.563 116.385 138.262  1.00  0.00     0.000 A 
ENDBRANCH  24  27
ENDBRANCH  23  24
ENDBRANCH   4  23
TORSDOF 7
ENDMDL
MODEL 9
REMARK VINA RESULT:     -12.0      1.155      1.321
REMARK SMILES O=C(NCc1ccccc1)c1c(C(F)(F)F)ccc(CS(=O)(=O)c2ccccc2)c1F
REMARK SMILES IDX 11 1 30 2 31 3 19 4 18 5 17 6 12 7 2 8 1 9 3 10 4 12 5 13
REMARK SMILES IDX 6 14 10 15 7 16 9 17 8 18 13 19 14 20 15 21 16 22 20 23
REMARK SMILES IDX 21 24 22 25 23 26 24 27 25 28 29 29 26 30 28 31 27 32
REMARK H PARENT 3 11
REMARK Flexibility Score: inf
ROOT
ATOM      1  C   UNL     1     130.779 119.670 132.546  1.00  0.00     0.088 A 
ATOM      2  C   UNL     1     129.801 119.647 133.549  1.00  0.00     0.140 A 
ATOM      3  F   UNL     1     128.892 118.658 133.583  1.00  0.00    -0.206 F 
ATOM      4  C   UNL     1     129.744 120.624 134.550  1.00  0.00     0.004 A 
ATOM      5  C   UNL     1     130.683 121.657 134.528  1.00  0.00     0.008 A 
ATOM      6  C   UNL     1     131.655 121.704 133.526  1.00  0.00     0.014 A 
ATOM      7  C   UNL     1     131.716 120.719 132.518  1.00  0.00     0.071 A 
ENDROOT
BRANCH   1   8
ATOM      8  C   UNL     1     130.848 118.559 131.564  1.00  0.00     0.255 C 
ATOM      9  O   UNL     1     130.854 118.809 130.366  1.00  0.00    -0.269 OA
ATOM     10  N   UNL     1     130.911 117.283 132.070  1.00  0.00    -0.348 N 
ATOM     11  H   UNL     1     131.077 117.138 133.058  1.00  0.00     0.164 HD
BRANCH  10  12
ATOM     12  C   UNL     1     131.096 116.152 131.191  1.00  0.00     0.152 C 
BRANCH  12  13
ATOM     13  C   UNL     1     130.005 115.138 131.398  1.00  0.00    -0.029 A 
ATOM     14  C   UNL     1     129.009 114.959 130.428  1.00  0.00     0.005 A 
ATOM     15  C   UNL     1     129.938 114.395 132.586  1.00  0.00     0.005 A 
ATOM     16  C   UNL     1     127.978 114.040 130.633  1.00  0.00     0.000 A 
ATOM     17  C   UNL     1     128.906 113.478 132.789  1.00  0.00     0.000 A 
ATOM     18  C   UNL     1     127.928 113.300 131.812  1.00  0.00     0.000 A 
ENDBRANCH  12  13
ENDBRANCH  10  12
ENDBRANCH   1   8
BRANCH   7  19
ATOM     19  C   UNL     1     132.772 120.833 131.442  1.00  0.00     0.417 C 
ATOM     20  F   UNL     1     133.412 119.640 131.235  1.00  0.00    -0.166 F 
ATOM     21  F   UNL     1     133.770 121.705 131.747  1.00  0.00    -0.166 F 
ATOM     22  F   UNL     1     132.274 121.176 130.227  1.00  0.00    -0.166 F 
ENDBRANCH   7  19
BRANCH   4  23
ATOM     23  C   UNL     1     128.709 120.533 135.642  1.00  0.00     0.180 C 
BRANCH  23  24
ATOM     24  S   UNL     1     129.276 119.495 136.980  1.00  0.00     0.182 S 
ATOM     25  O   UNL     1     128.611 119.939 138.193  1.00  0.00    -0.223 OA
ATOM     26  O   UNL     1     130.727 119.428 136.936  1.00  0.00    -0.223 OA
BRANCH  24  27
ATOM     27  C   UNL     1     128.646 117.873 136.615  1.00  0.00     0.067 A 
ATOM     28  C   UNL     1     127.280 117.619 136.764  1.00  0.00     0.020 A 
ATOM     29  C   UNL     1     129.521 116.866 136.196  1.00  0.00     0.020 A 
ATOM     30  C   UNL     1     126.782 116.354 136.454  1.00  0.00     0.001 A 
ATOM     31  C   UNL     1     129.013 115.605 135.884  1.00  0.00     0.001 A 
ATOM     32  C   UNL     1     127.646 115.353 136.009  1.00  0.00     0.000 A 
ENDBRANCH  24  27
ENDBRANCH  23  24
ENDBRANCH   4  23
TORSDOF 7
ENDMDL
