MODEL 1
REMARK VINA RESULT:     -11.8      0.000      0.000
REMARK SMILES C=Cc1ccccc1NC(=O)c1c(C(F)(F)F)ccc(CS(=O)(=O)c2ccccc2)c1F
REMARK SMILES IDX 12 1 31 2 32 3 20 4 19 5 18 6 13 7 10 8 11 9 9 10 8 12 7 13
REMARK SMILES IDX 3 14 6 15 4 16 5 17 2 18 1 19 14 20 15 21 16 22 17 23 21 24
REMARK SMILES IDX 22 25 23 26 24 27 25 28 26 29 30 30 27 31 29 32 28 33
REMARK H PARENT 9 11
REMARK Flexibility Score: inf
ROOT
ATOM      1  C   UNL     1     131.133 119.560 132.620  1.00  0.00     0.088 A 
ATOM      2  C   UNL     1     130.346 119.294 133.749  1.00  0.00     0.140 A 
ATOM      3  F   UNL     1     129.688 118.127 133.851  1.00  0.00    -0.206 F 
ATOM      4  C   UNL     1     130.208 120.219 134.790  1.00  0.00     0.004 A 
ATOM      5  C   UNL     1     130.893 121.433 134.699  1.00  0.00     0.008 A 
ATOM      6  C   UNL     1     131.694 121.707 133.587  1.00  0.00     0.014 A 
ATOM      7  C   UNL     1     131.831 120.779 132.536  1.00  0.00     0.071 A 
ENDROOT
BRANCH   1   8
ATOM      8  C   UNL     1     131.162 118.582 131.500  1.00  0.00     0.259 C 
ATOM      9  O   UNL     1     130.790 118.977 130.404  1.00  0.00    -0.269 OA
ATOM     10  N   UNL     1     131.610 117.319 131.823  1.00  0.00    -0.321 N 
ATOM     11  H   UNL     1     131.816 117.133 132.798  1.00  0.00     0.170 HD
BRANCH  10  12
ATOM     12  C   UNL     1     131.769 116.202 130.965  1.00  0.00     0.048 A 
ATOM     13  C   UNL     1     132.682 116.190 129.904  1.00  0.00     0.027 A 
ATOM     14  C   UNL     1     130.976 115.053 131.189  1.00  0.00    -0.003 A 
ATOM     15  C   UNL     1     132.805 115.070 129.076  1.00  0.00     0.002 A 
ATOM     16  C   UNL     1     131.108 113.935 130.350  1.00  0.00     0.010 A 
ATOM     17  C   UNL     1     132.020 113.944 129.297  1.00  0.00     0.001 A 
BRANCH  14  18
ATOM     18  C   UNL     1     129.990 114.953 132.277  1.00  0.00     0.002 C 
ATOM     19  C   UNL     1     129.584 113.774 132.763  1.00  0.00     0.009 C 
ENDBRANCH  14  18
ENDBRANCH  10  12
ENDBRANCH   1   8
BRANCH   7  20
ATOM     20  C   UNL     1     132.728 121.116 131.366  1.00  0.00     0.417 C 
ATOM     21  F   UNL     1     133.559 122.167 131.603  1.00  0.00    -0.166 F 
ATOM     22  F   UNL     1     133.485 120.072 130.942  1.00  0.00    -0.166 F 
ATOM     23  F   UNL     1     132.003 121.495 130.268  1.00  0.00    -0.166 F 
ENDBRANCH   7  20
BRANCH   4  24
ATOM     24  C   UNL     1     129.308 119.917 135.958  1.00  0.00     0.180 C 
BRANCH  24  25
ATOM     25  S   UNL     1     130.127 118.865 137.148  1.00  0.00     0.182 S 
ATOM     26  O   UNL     1     130.344 119.624 138.368  1.00  0.00    -0.223 OA
ATOM     27  O   UNL     1     131.252 118.239 136.478  1.00  0.00    -0.223 OA
BRANCH  25  28
ATOM     28  C   UNL     1     128.959 117.575 137.511  1.00  0.00     0.067 A 
ATOM     29  C   UNL     1     128.839 116.483 136.644  1.00  0.00     0.020 A 
ATOM     30  C   UNL     1     128.168 117.670 138.658  1.00  0.00     0.020 A 
ATOM     31  C   UNL     1     127.947 115.459 136.956  1.00  0.00     0.001 A 
ATOM     32  C   UNL     1     127.276 116.641 138.960  1.00  0.00     0.001 A 
ATOM     33  C   UNL     1     127.172 115.536 138.115  1.00  0.00     0.000 A 
ENDBRANCH  25  28
ENDBRANCH  24  25
ENDBRANCH   4  24
TORSDOF 7
ENDMDL
MODEL 2
REMARK VINA RESULT:     -11.6      0.876      1.341
REMARK SMILES C=Cc1ccccc1NC(=O)c1c(C(F)(F)F)ccc(CS(=O)(=O)c2ccccc2)c1F
REMARK SMILES IDX 12 1 31 2 32 3 20 4 19 5 18 6 13 7 10 8 11 9 9 10 8 12 7 13
REMARK SMILES IDX 3 14 6 15 4 16 5 17 2 18 1 19 14 20 15 21 16 22 17 23 21 24
REMARK SMILES IDX 22 25 23 26 24 27 25 28 26 29 30 30 27 31 29 32 28 33
REMARK H PARENT 9 11
REMARK Flexibility Score: inf
ROOT
ATOM      1  C   UNL     1     131.017 119.672 132.386  1.00  0.00     0.088 A 
ATOM      2  C   UNL     1     130.027 119.542 133.369  1.00  0.00     0.140 A 
ATOM      3  F   UNL     1     129.243 118.452 133.396  1.00  0.00    -0.206 F 
ATOM      4  C   UNL     1     129.813 120.529 134.339  1.00  0.00     0.004 A 
ATOM      5  C   UNL     1     130.628 121.664 134.326  1.00  0.00     0.008 A 
ATOM      6  C   UNL     1     131.629 121.800 133.361  1.00  0.00     0.014 A 
ATOM      7  C   UNL     1     131.843 120.810 132.382  1.00  0.00     0.071 A 
ENDROOT
BRANCH   1   8
ATOM      8  C   UNL     1     131.132 118.638 131.322  1.00  0.00     0.259 C 
ATOM      9  O   UNL     1     130.871 118.984 130.178  1.00  0.00    -0.269 OA
ATOM     10  N   UNL     1     131.525 117.387 131.746  1.00  0.00    -0.321 N 
ATOM     11  H   UNL     1     131.637 117.248 132.744  1.00  0.00     0.170 HD
BRANCH  10  12
ATOM     12  C   UNL     1     131.743 116.226 130.961  1.00  0.00     0.048 A 
ATOM     13  C   UNL     1     132.660 116.193 129.903  1.00  0.00     0.027 A 
ATOM     14  C   UNL     1     131.007 115.056 131.258  1.00  0.00    -0.003 A 
ATOM     15  C   UNL     1     132.842 115.029 129.149  1.00  0.00     0.002 A 
ATOM     16  C   UNL     1     131.198 113.895 130.493  1.00  0.00     0.010 A 
ATOM     17  C   UNL     1     132.112 113.882 129.442  1.00  0.00     0.001 A 
BRANCH  14  18
ATOM     18  C   UNL     1     130.023 114.978 132.349  1.00  0.00     0.002 C 
ATOM     19  C   UNL     1     129.274 113.888 132.553  1.00  0.00     0.009 C 
ENDBRANCH  14  18
ENDBRANCH  10  12
ENDBRANCH   1   8
BRANCH   7  20
ATOM     20  C   UNL     1     132.956 120.997 131.375  1.00  0.00     0.417 C 
ATOM     21  F   UNL     1     133.694 119.875 131.164  1.00  0.00    -0.166 F 
ATOM     22  F   UNL     1     132.528 121.448 130.168  1.00  0.00    -0.166 F 
ATOM     23  F   UNL     1     133.865 121.930 131.797  1.00  0.00    -0.166 F 
ENDBRANCH   7  20
BRANCH   4  24
ATOM     24  C   UNL     1     128.702 120.377 135.343  1.00  0.00     0.180 C 
BRANCH  24  25
ATOM     25  S   UNL     1     129.251 119.465 136.778  1.00  0.00     0.182 S 
ATOM     26  O   UNL     1     128.618 120.030 137.958  1.00  0.00    -0.223 OA
ATOM     27  O   UNL     1     130.698 119.369 136.710  1.00  0.00    -0.223 OA
BRANCH  25  28
ATOM     28  C   UNL     1     128.615 117.820 136.556  1.00  0.00     0.067 A 
ATOM     29  C   UNL     1     127.272 117.549 136.841  1.00  0.00     0.020 A 
ATOM     30  C   UNL     1     129.469 116.811 136.104  1.00  0.00     0.020 A 
ATOM     31  C   UNL     1     126.774 116.266 136.628  1.00  0.00     0.001 A 
ATOM     32  C   UNL     1     128.962 115.528 135.897  1.00  0.00     0.001 A 
ATOM     33  C   UNL     1     127.616 115.259 136.152  1.00  0.00     0.000 A 
ENDBRANCH  25  28
ENDBRANCH  24  25
ENDBRANCH   4  24
TORSDOF 7
ENDMDL
MODEL 3
REMARK VINA RESULT:     -11.6      0.654      1.249
REMARK SMILES C=Cc1ccccc1NC(=O)c1c(C(F)(F)F)ccc(CS(=O)(=O)c2ccccc2)c1F
REMARK SMILES IDX 12 1 31 2 32 3 20 4 19 5 18 6 13 7 10 8 11 9 9 10 8 12 7 13
REMARK SMILES IDX 3 14 6 15 4 16 5 17 2 18 1 19 14 20 15 21 16 22 17 23 21 24
REMARK SMILES IDX 22 25 23 26 24 27 25 28 26 29 30 30 27 31 29 32 28 33
REMARK H PARENT 9 11
REMARK Flexibility Score: inf
ROOT
ATOM      1  C   UNL     1     131.185 119.206 132.133  1.00  0.00     0.088 A 
ATOM      2  C   UNL     1     130.240 118.921 133.128  1.00  0.00     0.140 A 
ATOM      3  F   UNL     1     129.578 117.753 133.113  1.00  0.00    -0.206 F 
ATOM      4  C   UNL     1     129.946 119.830 134.151  1.00  0.00     0.004 A 
ATOM      5  C   UNL     1     130.633 121.046 134.181  1.00  0.00     0.008 A 
ATOM      6  C   UNL     1     131.590 121.338 133.206  1.00  0.00     0.014 A 
ATOM      7  C   UNL     1     131.885 120.426 132.172  1.00  0.00     0.071 A 
ENDROOT
BRANCH   1   8
ATOM      8  C   UNL     1     131.384 118.245 131.015  1.00  0.00     0.259 C 
ATOM      9  O   UNL     1     131.218 118.668 129.880  1.00  0.00    -0.269 OA
ATOM     10  N   UNL     1     131.738 116.965 131.385  1.00  0.00    -0.321 N 
ATOM     11  H   UNL     1     131.767 116.758 132.376  1.00  0.00     0.170 HD
BRANCH  10  12
ATOM     12  C   UNL     1     132.016 115.857 130.544  1.00  0.00     0.048 A 
ATOM     13  C   UNL     1     133.130 115.814 129.698  1.00  0.00     0.027 A 
ATOM     14  C   UNL     1     131.134 114.752 130.561  1.00  0.00    -0.003 A 
ATOM     15  C   UNL     1     133.366 114.705 128.879  1.00  0.00     0.002 A 
ATOM     16  C   UNL     1     131.381 113.645 129.734  1.00  0.00     0.010 A 
ATOM     17  C   UNL     1     132.494 113.623 128.895  1.00  0.00     0.001 A 
BRANCH  14  18
ATOM     18  C   UNL     1     129.937 114.689 131.414  1.00  0.00     0.002 C 
ATOM     19  C   UNL     1     129.919 114.003 132.564  1.00  0.00     0.009 C 
ENDBRANCH  14  18
ENDBRANCH  10  12
ENDBRANCH   1   8
BRANCH   7  20
ATOM     20  C   UNL     1     132.946 120.782 131.155  1.00  0.00     0.417 C 
ATOM     21  F   UNL     1     133.816 119.769 130.898  1.00  0.00    -0.166 F 
ATOM     22  F   UNL     1     132.441 121.210 129.969  1.00  0.00    -0.166 F 
ATOM     23  F   UNL     1     133.738 121.810 131.592  1.00  0.00    -0.166 F 
ENDBRANCH   7  20
BRANCH   4  24
ATOM     24  C   UNL     1     128.882 119.510 135.167  1.00  0.00     0.180 C 
BRANCH  24  25
ATOM     25  S   UNL     1     129.607 119.010 136.722  1.00  0.00     0.182 S 
ATOM     26  O   UNL     1     129.511 120.119 137.657  1.00  0.00    -0.223 OA
ATOM     27  O   UNL     1     130.902 118.420 136.433  1.00  0.00    -0.223 OA
BRANCH  25  28
ATOM     28  C   UNL     1     128.566 117.701 137.322  1.00  0.00     0.067 A 
ATOM     29  C   UNL     1     128.173 117.685 138.665  1.00  0.00     0.020 A 
ATOM     30  C   UNL     1     128.155 116.695 136.444  1.00  0.00     0.020 A 
ATOM     31  C   UNL     1     127.327 116.675 139.117  1.00  0.00     0.001 A 
ATOM     32  C   UNL     1     127.310 115.686 136.906  1.00  0.00     0.001 A 
ATOM     33  C   UNL     1     126.892 115.681 138.238  1.00  0.00     0.000 A 
ENDBRANCH  25  28
ENDBRANCH  24  25
ENDBRANCH   4  24
TORSDOF 7
ENDMDL
MODEL 4
REMARK VINA RESULT:     -11.5      1.028      1.608
REMARK SMILES C=Cc1ccccc1NC(=O)c1c(C(F)(F)F)ccc(CS(=O)(=O)c2ccccc2)c1F
REMARK SMILES IDX 12 1 31 2 32 3 20 4 19 5 18 6 13 7 10 8 11 9 9 10 8 12 7 13
REMARK SMILES IDX 3 14 6 15 4 16 5 17 2 18 1 19 14 20 15 21 16 22 17 23 21 24
REMARK SMILES IDX 22 25 23 26 24 27 25 28 26 29 30 30 27 31 29 32 28 33
REMARK H PARENT 9 11
REMARK Flexibility Score: inf
ROOT
ATOM      1  C   UNL     1     130.830 119.493 132.997  1.00  0.00     0.088 A 
ATOM      2  C   UNL     1     130.135 119.285 134.196  1.00  0.00     0.140 A 
ATOM      3  F   UNL     1     129.380 118.187 134.355  1.00  0.00    -0.206 F 
ATOM      4  C   UNL     1     130.190 120.203 135.251  1.00  0.00     0.004 A 
ATOM      5  C   UNL     1     130.979 121.346 135.101  1.00  0.00     0.008 A 
ATOM      6  C   UNL     1     131.690 121.560 133.917  1.00  0.00     0.014 A 
ATOM      7  C   UNL     1     131.633 120.639 132.852  1.00  0.00     0.071 A 
ENDROOT
BRANCH   1   8
ATOM      8  C   UNL     1     130.655 118.534 131.873  1.00  0.00     0.259 C 
ATOM      9  O   UNL     1     130.637 118.998 130.742  1.00  0.00    -0.269 OA
ATOM     10  N   UNL     1     130.528 117.209 132.233  1.00  0.00    -0.321 N 
ATOM     11  H   UNL     1     130.495 116.998 133.224  1.00  0.00     0.170 HD
BRANCH  10  12
ATOM     12  C   UNL     1     130.378 116.083 131.386  1.00  0.00     0.048 A 
ATOM     13  C   UNL     1     131.467 115.441 130.784  1.00  0.00     0.027 A 
ATOM     14  C   UNL     1     129.077 115.588 131.137  1.00  0.00    -0.003 A 
ATOM     15  C   UNL     1     131.276 114.335 129.949  1.00  0.00     0.002 A 
ATOM     16  C   UNL     1     128.899 114.478 130.296  1.00  0.00     0.010 A 
ATOM     17  C   UNL     1     129.995 113.855 129.704  1.00  0.00     0.001 A 
BRANCH  14  18
ATOM     18  C   UNL     1     127.863 116.181 131.719  1.00  0.00     0.002 C 
ATOM     19  C   UNL     1     126.816 115.435 132.091  1.00  0.00     0.009 C 
ENDBRANCH  14  18
ENDBRANCH  10  12
ENDBRANCH   1   8
BRANCH   7  20
ATOM     20  C   UNL     1     132.441 120.907 131.602  1.00  0.00     0.417 C 
ATOM     21  F   UNL     1     133.138 119.825 131.162  1.00  0.00    -0.166 F 
ATOM     22  F   UNL     1     131.700 121.376 130.565  1.00  0.00    -0.166 F 
ATOM     23  F   UNL     1     133.395 121.865 131.815  1.00  0.00    -0.166 F 
ENDBRANCH   7  20
BRANCH   4  24
ATOM     24  C   UNL     1     129.383 119.971 136.501  1.00  0.00     0.180 C 
BRANCH  24  25
ATOM     25  S   UNL     1     130.154 118.745 137.548  1.00  0.00     0.182 S 
ATOM     26  O   UNL     1     130.411 119.340 138.848  1.00  0.00    -0.223 OA
ATOM     27  O   UNL     1     131.245 118.151 136.797  1.00  0.00    -0.223 OA
BRANCH  25  28
ATOM     28  C   UNL     1     128.926 117.477 137.762  1.00  0.00     0.067 A 
ATOM     29  C   UNL     1     128.010 117.568 138.816  1.00  0.00     0.020 A 
ATOM     30  C   UNL     1     128.895 116.398 136.876  1.00  0.00     0.020 A 
ATOM     31  C   UNL     1     127.029 116.589 138.954  1.00  0.00     0.001 A 
ATOM     32  C   UNL     1     127.910 115.421 137.024  1.00  0.00     0.001 A 
ATOM     33  C   UNL     1     126.976 115.521 138.056  1.00  0.00     0.000 A 
ENDBRANCH  25  28
ENDBRANCH  24  25
ENDBRANCH   4  24
TORSDOF 7
ENDMDL
MODEL 5
REMARK VINA RESULT:     -11.3      0.996      1.124
REMARK SMILES C=Cc1ccccc1NC(=O)c1c(C(F)(F)F)ccc(CS(=O)(=O)c2ccccc2)c1F
REMARK SMILES IDX 12 1 31 2 32 3 20 4 19 5 18 6 13 7 10 8 11 9 9 10 8 12 7 13
REMARK SMILES IDX 3 14 6 15 4 16 5 17 2 18 1 19 14 20 15 21 16 22 17 23 21 24
REMARK SMILES IDX 22 25 23 26 24 27 25 28 26 29 30 30 27 31 29 32 28 33
REMARK H PARENT 9 11
REMARK Flexibility Score: inf
ROOT
ATOM      1  C   UNL     1     130.995 119.659 132.367  1.00  0.00     0.088 A 
ATOM      2  C   UNL     1     130.005 119.546 133.353  1.00  0.00     0.140 A 
ATOM      3  F   UNL     1     129.182 118.484 133.363  1.00  0.00    -0.206 F 
ATOM      4  C   UNL     1     129.830 120.521 134.341  1.00  0.00     0.004 A 
ATOM      5  C   UNL     1     130.684 121.626 134.346  1.00  0.00     0.008 A 
ATOM      6  C   UNL     1     131.686 121.746 133.380  1.00  0.00     0.014 A 
ATOM      7  C   UNL     1     131.861 120.767 132.381  1.00  0.00     0.071 A 
ENDROOT
BRANCH   1   8
ATOM      8  C   UNL     1     131.069 118.642 131.284  1.00  0.00     0.259 C 
ATOM      9  O   UNL     1     130.941 119.042 130.135  1.00  0.00    -0.269 OA
ATOM     10  N   UNL     1     131.275 117.344 131.697  1.00  0.00    -0.321 N 
ATOM     11  H   UNL     1     131.291 117.170 132.695  1.00  0.00     0.170 HD
BRANCH  10  12
ATOM     12  C   UNL     1     131.413 116.183 130.896  1.00  0.00     0.048 A 
ATOM     13  C   UNL     1     132.571 115.911 130.157  1.00  0.00     0.027 A 
ATOM     14  C   UNL     1     130.341 115.263 130.839  1.00  0.00    -0.003 A 
ATOM     15  C   UNL     1     132.667 114.756 129.373  1.00  0.00     0.002 A 
ATOM     16  C   UNL     1     130.449 114.108 130.048  1.00  0.00     0.010 A 
ATOM     17  C   UNL     1     131.608 113.856 129.317  1.00  0.00     0.001 A 
BRANCH  14  18
ATOM     18  C   UNL     1     129.082 115.446 131.578  1.00  0.00     0.002 C 
ATOM     19  C   UNL     1     127.970 115.899 130.986  1.00  0.00     0.009 C 
ENDBRANCH  14  18
ENDBRANCH  10  12
ENDBRANCH   1   8
BRANCH   7  20
ATOM     20  C   UNL     1     132.976 120.934 131.373  1.00  0.00     0.417 C 
ATOM     21  F   UNL     1     133.903 121.861 131.734  1.00  0.00    -0.166 F 
ATOM     22  F   UNL     1     133.629 119.778 131.088  1.00  0.00    -0.166 F 
ATOM     23  F   UNL     1     132.502 121.377 130.167  1.00  0.00    -0.166 F 
ENDBRANCH   7  20
BRANCH   4  24
ATOM     24  C   UNL     1     128.718 120.390 135.348  1.00  0.00     0.180 C 
BRANCH  24  25
ATOM     25  S   UNL     1     129.256 119.478 136.788  1.00  0.00     0.182 S 
ATOM     26  O   UNL     1     128.624 120.052 137.963  1.00  0.00    -0.223 OA
ATOM     27  O   UNL     1     130.702 119.372 136.724  1.00  0.00    -0.223 OA
BRANCH  25  28
ATOM     28  C   UNL     1     128.608 117.837 136.568  1.00  0.00     0.067 A 
ATOM     29  C   UNL     1     129.441 116.820 136.091  1.00  0.00     0.020 A 
ATOM     30  C   UNL     1     127.268 117.584 136.869  1.00  0.00     0.020 A 
ATOM     31  C   UNL     1     128.934 115.529 135.957  1.00  0.00     0.001 A 
ATOM     32  C   UNL     1     126.768 116.290 136.729  1.00  0.00     0.001 A 
ATOM     33  C   UNL     1     127.602 115.264 136.281  1.00  0.00     0.000 A 
ENDBRANCH  25  28
ENDBRANCH  24  25
ENDBRANCH   4  24
TORSDOF 7
ENDMDL
MODEL 6
REMARK VINA RESULT:     -10.9      0.984      2.186
REMARK SMILES C=Cc1ccccc1NC(=O)c1c(C(F)(F)F)ccc(CS(=O)(=O)c2ccccc2)c1F
REMARK SMILES IDX 12 1 31 2 32 3 20 4 19 5 18 6 13 7 10 8 11 9 9 10 8 12 7 13
REMARK SMILES IDX 3 14 6 15 4 16 5 17 2 18 1 19 14 20 15 21 16 22 17 23 21 24
REMARK SMILES IDX 22 25 23 26 24 27 25 28 26 29 30 30 27 31 29 32 28 33
REMARK H PARENT 9 11
REMARK Flexibility Score: inf
ROOT
ATOM      1  C   UNL     1     130.718 118.795 132.539  1.00  0.00     0.088 A 
ATOM      2  C   UNL     1     130.069 118.760 133.781  1.00  0.00     0.140 A 
ATOM      3  F   UNL     1     129.440 117.644 134.182  1.00  0.00    -0.206 F 
ATOM      4  C   UNL     1     130.043 119.871 134.632  1.00  0.00     0.004 A 
ATOM      5  C   UNL     1     130.700 121.036 134.230  1.00  0.00     0.008 A 
ATOM      6  C   UNL     1     131.364 121.081 133.002  1.00  0.00     0.014 A 
ATOM      7  C   UNL     1     131.389 119.965 132.141  1.00  0.00     0.071 A 
ENDROOT
BRANCH   1   8
ATOM      8  C   UNL     1     130.628 117.618 131.633  1.00  0.00     0.259 C 
ATOM      9  O   UNL     1     129.526 117.350 131.176  1.00  0.00    -0.269 OA
ATOM     10  N   UNL     1     131.811 116.948 131.406  1.00  0.00    -0.321 N 
ATOM     11  H   UNL     1     132.628 117.259 131.919  1.00  0.00     0.170 HD
BRANCH  10  12
ATOM     12  C   UNL     1     132.032 115.820 130.576  1.00  0.00     0.048 A 
ATOM     13  C   UNL     1     131.300 114.633 130.706  1.00  0.00     0.027 A 
ATOM     14  C   UNL     1     133.030 115.895 129.578  1.00  0.00    -0.003 A 
ATOM     15  C   UNL     1     131.553 113.540 129.871  1.00  0.00     0.002 A 
ATOM     16  C   UNL     1     133.275 114.791 128.747  1.00  0.00     0.010 A 
ATOM     17  C   UNL     1     132.539 113.617 128.894  1.00  0.00     0.001 A 
BRANCH  14  18
ATOM     18  C   UNL     1     133.854 117.092 129.350  1.00  0.00     0.002 C 
ATOM     19  C   UNL     1     135.191 117.040 129.319  1.00  0.00     0.009 C 
ENDBRANCH  14  18
ENDBRANCH  10  12
ENDBRANCH   1   8
BRANCH   7  20
ATOM     20  C   UNL     1     132.142 120.060 130.833  1.00  0.00     0.417 C 
ATOM     21  F   UNL     1     132.294 121.334 130.382  1.00  0.00    -0.166 F 
ATOM     22  F   UNL     1     133.369 119.480 130.868  1.00  0.00    -0.166 F 
ATOM     23  F   UNL     1     131.478 119.418 129.822  1.00  0.00    -0.166 F 
ENDBRANCH   7  20
BRANCH   4  24
ATOM     24  C   UNL     1     129.286 119.812 135.933  1.00  0.00     0.180 C 
BRANCH  24  25
ATOM     25  S   UNL     1     130.172 118.847 137.150  1.00  0.00     0.182 S 
ATOM     26  O   UNL     1     130.433 119.687 138.306  1.00  0.00    -0.223 OA
ATOM     27  O   UNL     1     131.274 118.190 136.471  1.00  0.00    -0.223 OA
BRANCH  25  28
ATOM     28  C   UNL     1     129.039 117.572 137.647  1.00  0.00     0.067 A 
ATOM     29  C   UNL     1     128.209 117.773 138.756  1.00  0.00     0.020 A 
ATOM     30  C   UNL     1     128.995 116.376 136.927  1.00  0.00     0.020 A 
ATOM     31  C   UNL     1     127.299 116.781 139.116  1.00  0.00     0.001 A 
ATOM     32  C   UNL     1     128.082 115.388 137.296  1.00  0.00     0.001 A 
ATOM     33  C   UNL     1     127.232 115.594 138.384  1.00  0.00     0.000 A 
ENDBRANCH  25  28
ENDBRANCH  24  25
ENDBRANCH   4  24
TORSDOF 7
ENDMDL
MODEL 7
REMARK VINA RESULT:     -10.7      2.810      6.446
REMARK SMILES C=Cc1ccccc1NC(=O)c1c(C(F)(F)F)ccc(CS(=O)(=O)c2ccccc2)c1F
REMARK SMILES IDX 12 1 31 2 32 3 20 4 19 5 18 6 13 7 10 8 11 9 9 10 8 12 7 13
REMARK SMILES IDX 3 14 6 15 4 16 5 17 2 18 1 19 14 20 15 21 16 22 17 23 21 24
REMARK SMILES IDX 22 25 23 26 24 27 25 28 26 29 30 30 27 31 29 32 28 33
REMARK H PARENT 9 11
REMARK Flexibility Score: inf
ROOT
ATOM      1  C   UNL     1     128.677 117.000 135.660  1.00  0.00     0.088 A 
ATOM      2  C   UNL     1     129.606 117.960 135.237  1.00  0.00     0.140 A 
ATOM      3  F   UNL     1     130.325 117.756 134.122  1.00  0.00    -0.206 F 
ATOM      4  C   UNL     1     129.826 119.143 135.954  1.00  0.00     0.004 A 
ATOM      5  C   UNL     1     129.079 119.370 137.112  1.00  0.00     0.008 A 
ATOM      6  C   UNL     1     128.137 118.430 137.537  1.00  0.00     0.014 A 
ATOM      7  C   UNL     1     127.917 117.237 136.820  1.00  0.00     0.071 A 
ENDROOT
BRANCH   1   8
ATOM      8  C   UNL     1     128.557 115.719 134.914  1.00  0.00     0.259 C 
ATOM      9  O   UNL     1     129.034 114.722 135.439  1.00  0.00    -0.269 OA
ATOM     10  N   UNL     1     127.916 115.794 133.696  1.00  0.00    -0.321 N 
ATOM     11  H   UNL     1     127.640 116.714 133.373  1.00  0.00     0.170 HD
BRANCH  10  12
ATOM     12  C   UNL     1     127.636 114.742 132.789  1.00  0.00     0.048 A 
ATOM     13  C   UNL     1     126.630 113.796 133.018  1.00  0.00     0.027 A 
ATOM     14  C   UNL     1     128.403 114.642 131.605  1.00  0.00    -0.003 A 
ATOM     15  C   UNL     1     126.388 112.769 132.100  1.00  0.00     0.002 A 
ATOM     16  C   UNL     1     128.151 113.606 130.692  1.00  0.00     0.010 A 
ATOM     17  C   UNL     1     127.148 112.672 130.940  1.00  0.00     0.001 A 
BRANCH  14  18
ATOM     18  C   UNL     1     129.480 115.583 131.260  1.00  0.00     0.002 C 
ATOM     19  C   UNL     1     130.763 115.329 131.545  1.00  0.00     0.009 C 
ENDBRANCH  14  18
ENDBRANCH  10  12
ENDBRANCH   1   8
BRANCH   7  20
ATOM     20  C   UNL     1     126.869 116.263 137.312  1.00  0.00     0.417 C 
ATOM     21  F   UNL     1     126.045 115.808 136.331  1.00  0.00    -0.166 F 
ATOM     22  F   UNL     1     127.387 115.185 137.956  1.00  0.00    -0.166 F 
ATOM     23  F   UNL     1     126.028 116.846 138.222  1.00  0.00    -0.166 F 
ENDBRANCH   7  20
BRANCH   4  24
ATOM     24  C   UNL     1     130.875 120.122 135.497  1.00  0.00     0.180 C 
BRANCH  24  25
ATOM     25  S   UNL     1     130.261 121.152 134.172  1.00  0.00     0.182 S 
ATOM     26  O   UNL     1     130.604 122.534 134.460  1.00  0.00    -0.223 OA
ATOM     27  O   UNL     1     128.876 120.786 133.937  1.00  0.00    -0.223 OA
BRANCH  25  28
ATOM     28  C   UNL     1     131.177 120.653 132.732  1.00  0.00     0.067 A 
ATOM     29  C   UNL     1     130.801 119.501 132.034  1.00  0.00     0.020 A 
ATOM     30  C   UNL     1     132.270 121.417 132.318  1.00  0.00     0.020 A 
ATOM     31  C   UNL     1     131.502 119.138 130.886  1.00  0.00     0.001 A 
ATOM     32  C   UNL     1     132.968 121.045 131.169  1.00  0.00     0.001 A 
ATOM     33  C   UNL     1     132.580 119.912 130.452  1.00  0.00     0.000 A 
ENDBRANCH  25  28
ENDBRANCH  24  25
ENDBRANCH   4  24
TORSDOF 7
ENDMDL
MODEL 8
REMARK VINA RESULT:     -10.7      2.726      5.340
REMARK SMILES C=Cc1ccccc1NC(=O)c1c(C(F)(F)F)ccc(CS(=O)(=O)c2ccccc2)c1F
REMARK SMILES IDX 12 1 31 2 32 3 20 4 19 5 18 6 13 7 10 8 11 9 9 10 8 12 7 13
REMARK SMILES IDX 3 14 6 15 4 16 5 17 2 18 1 19 14 20 15 21 16 22 17 23 21 24
REMARK SMILES IDX 22 25 23 26 24 27 25 28 26 29 30 30 27 31 29 32 28 33
REMARK H PARENT 9 11
REMARK Flexibility Score: inf
ROOT
ATOM      1  C   UNL     1     129.666 116.065 132.273  1.00  0.00     0.088 A 
ATOM      2  C   UNL     1     128.666 116.313 133.223  1.00  0.00     0.140 A 
ATOM      3  F   UNL     1     128.251 117.570 133.451  1.00  0.00    -0.206 F 
ATOM      4  C   UNL     1     128.078 115.282 133.966  1.00  0.00     0.004 A 
ATOM      5  C   UNL     1     128.497 113.970 133.732  1.00  0.00     0.008 A 
ATOM      6  C   UNL     1     129.481 113.705 132.777  1.00  0.00     0.014 A 
ATOM      7  C   UNL     1     130.077 114.741 132.031  1.00  0.00     0.071 A 
ENDROOT
BRANCH   1   8
ATOM      8  C   UNL     1     130.324 117.209 131.586  1.00  0.00     0.259 C 
ATOM      9  O   UNL     1     130.182 117.287 130.374  1.00  0.00    -0.269 OA
ATOM     10  N   UNL     1     131.031 118.067 132.400  1.00  0.00    -0.321 N 
ATOM     11  H   UNL     1     131.108 117.821 133.380  1.00  0.00     0.170 HD
BRANCH  10  12
ATOM     12  C   UNL     1     131.730 119.245 132.032  1.00  0.00     0.048 A 
ATOM     13  C   UNL     1     132.692 119.264 131.016  1.00  0.00     0.027 A 
ATOM     14  C   UNL     1     131.444 120.448 132.719  1.00  0.00    -0.003 A 
ATOM     15  C   UNL     1     133.364 120.446 130.687  1.00  0.00     0.002 A 
ATOM     16  C   UNL     1     132.126 121.627 132.380  1.00  0.00     0.010 A 
ATOM     17  C   UNL     1     133.083 121.625 131.368  1.00  0.00     0.001 A 
BRANCH  14  18
ATOM     18  C   UNL     1     130.449 120.543 133.798  1.00  0.00     0.002 C 
ATOM     19  C   UNL     1     129.148 120.734 133.550  1.00  0.00     0.009 C 
ENDBRANCH  14  18
ENDBRANCH  10  12
ENDBRANCH   1   8
BRANCH   7  20
ATOM     20  C   UNL     1     131.122 114.397 130.993  1.00  0.00     0.417 C 
ATOM     21  F   UNL     1     130.607 114.174 129.755  1.00  0.00    -0.166 F 
ATOM     22  F   UNL     1     132.102 115.330 130.877  1.00  0.00    -0.166 F 
ATOM     23  F   UNL     1     131.777 113.236 131.305  1.00  0.00    -0.166 F 
ENDBRANCH   7  20
BRANCH   4  24
ATOM     24  C   UNL     1     127.048 115.597 135.017  1.00  0.00     0.180 C 
BRANCH  24  25
ATOM     25  S   UNL     1     127.776 115.609 136.649  1.00  0.00     0.182 S 
ATOM     26  O   UNL     1     128.851 114.632 136.685  1.00  0.00    -0.223 OA
ATOM     27  O   UNL     1     126.693 115.527 137.613  1.00  0.00    -0.223 OA
BRANCH  25  28
ATOM     28  C   UNL     1     128.501 117.222 136.824  1.00  0.00     0.067 A 
ATOM     29  C   UNL     1     129.893 117.365 136.804  1.00  0.00     0.020 A 
ATOM     30  C   UNL     1     127.669 118.332 136.988  1.00  0.00     0.020 A 
ATOM     31  C   UNL     1     130.450 118.637 136.905  1.00  0.00     0.001 A 
ATOM     32  C   UNL     1     128.237 119.603 137.091  1.00  0.00     0.001 A 
ATOM     33  C   UNL     1     129.623 119.754 137.043  1.00  0.00     0.000 A 
ENDBRANCH  25  28
ENDBRANCH  24  25
ENDBRANCH   4  24
TORSDOF 7
ENDMDL
MODEL 9
REMARK VINA RESULT:     -10.7      1.598      2.065
REMARK SMILES C=Cc1ccccc1NC(=O)c1c(C(F)(F)F)ccc(CS(=O)(=O)c2ccccc2)c1F
REMARK SMILES IDX 12 1 31 2 32 3 20 4 19 5 18 6 13 7 10 8 11 9 9 10 8 12 7 13
REMARK SMILES IDX 3 14 6 15 4 16 5 17 2 18 1 19 14 20 15 21 16 22 17 23 21 24
REMARK SMILES IDX 22 25 23 26 24 27 25 28 26 29 30 30 27 31 29 32 28 33
REMARK H PARENT 9 11
REMARK Flexibility Score: inf
ROOT
ATOM      1  C   UNL     1     131.523 119.477 132.691  1.00  0.00     0.088 A 
ATOM      2  C   UNL     1     131.163 119.384 134.042  1.00  0.00     0.140 A 
ATOM      3  F   UNL     1     130.899 118.186 134.589  1.00  0.00    -0.206 F 
ATOM      4  C   UNL     1     131.055 120.516 134.859  1.00  0.00     0.004 A 
ATOM      5  C   UNL     1     131.334 121.767 134.304  1.00  0.00     0.008 A 
ATOM      6  C   UNL     1     131.710 121.875 132.963  1.00  0.00     0.014 A 
ATOM      7  C   UNL     1     131.815 120.737 132.138  1.00  0.00     0.071 A 
ENDROOT
BRANCH   1   8
ATOM      8  C   UNL     1     131.525 118.251 131.848  1.00  0.00     0.259 C 
ATOM      9  O   UNL     1     132.521 118.043 131.170  1.00  0.00    -0.269 OA
ATOM     10  N   UNL     1     130.389 117.474 131.923  1.00  0.00    -0.321 N 
ATOM     11  H   UNL     1     129.621 117.825 132.484  1.00  0.00     0.170 HD
BRANCH  10  12
ATOM     12  C   UNL     1     130.122 116.250 131.260  1.00  0.00     0.048 A 
ATOM     13  C   UNL     1     131.101 115.552 130.542  1.00  0.00     0.027 A 
ATOM     14  C   UNL     1     128.816 115.711 131.326  1.00  0.00    -0.003 A 
ATOM     15  C   UNL     1     130.796 114.349 129.897  1.00  0.00     0.002 A 
ATOM     16  C   UNL     1     128.523 114.503 130.673  1.00  0.00     0.010 A 
ATOM     17  C   UNL     1     129.509 113.825 129.961  1.00  0.00     0.001 A 
BRANCH  14  18
ATOM     18  C   UNL     1     127.714 116.356 132.056  1.00  0.00     0.002 C 
ATOM     19  C   UNL     1     126.629 115.678 132.449  1.00  0.00     0.009 C 
ENDBRANCH  14  18
ENDBRANCH  10  12
ENDBRANCH   1   8
BRANCH   7  20
ATOM     20  C   UNL     1     132.248 120.907 130.699  1.00  0.00     0.417 C 
ATOM     21  F   UNL     1     133.534 120.529 130.469  1.00  0.00    -0.166 F 
ATOM     22  F   UNL     1     131.456 120.252 129.812  1.00  0.00    -0.166 F 
ATOM     23  F   UNL     1     132.203 122.219 130.311  1.00  0.00    -0.166 F 
ENDBRANCH   7  20
BRANCH   4  24
ATOM     24  C   UNL     1     130.610 120.379 136.290  1.00  0.00     0.180 C 
BRANCH  24  25
ATOM     25  S   UNL     1     128.866 119.997 136.389  1.00  0.00     0.182 S 
ATOM     26  O   UNL     1     128.247 120.325 135.117  1.00  0.00    -0.223 OA
ATOM     27  O   UNL     1     128.357 120.587 137.614  1.00  0.00    -0.223 OA
BRANCH  25  28
ATOM     28  C   UNL     1     128.787 118.233 136.594  1.00  0.00     0.067 A 
ATOM     29  C   UNL     1     129.618 117.604 137.527  1.00  0.00     0.020 A 
ATOM     30  C   UNL     1     127.897 117.493 135.813  1.00  0.00     0.020 A 
ATOM     31  C   UNL     1     129.522 116.225 137.706  1.00  0.00     0.001 A 
ATOM     32  C   UNL     1     127.810 116.113 135.998  1.00  0.00     0.001 A 
ATOM     33  C   UNL     1     128.616 115.483 136.947  1.00  0.00     0.000 A 
ENDBRANCH  25  28
ENDBRANCH  24  25
ENDBRANCH   4  24
TORSDOF 7
ENDMDL
