MODEL 1
REMARK VINA RESULT:     -13.3      0.000      0.000
REMARK SMILES O=C(Nc1cccc(-c2ccccc2)c1)c1c(C(F)(F)F)ccc(CS(=O)(=O)c2ccccc2)c1F
REMARK SMILES IDX 16 1 35 2 36 3 24 4 23 5 22 6 17 7 2 8 1 9 3 10 4 12 5 13
REMARK SMILES IDX 15 14 6 15 8 16 7 17 9 18 10 19 14 20 11 21 13 22 12 23
REMARK SMILES IDX 18 24 19 25 20 26 21 27 25 28 26 29 27 30 28 31 29 32 30 33
REMARK SMILES IDX 34 34 31 35 33 36 32 37
REMARK H PARENT 3 11
REMARK Flexibility Score: inf
ROOT
ATOM      1  C   UNL     1     130.920 119.646 132.797  1.00  0.00     0.088 A 
ATOM      2  C   UNL     1     130.194 119.474 133.980  1.00  0.00     0.140 A 
ATOM      3  F   UNL     1     129.371 118.423 134.118  1.00  0.00    -0.206 F 
ATOM      4  C   UNL     1     130.295 120.377 135.045  1.00  0.00     0.004 A 
ATOM      5  C   UNL     1     131.163 121.465 134.919  1.00  0.00     0.008 A 
ATOM      6  C   UNL     1     131.906 121.641 133.748  1.00  0.00     0.014 A 
ATOM      7  C   UNL     1     131.791 120.742 132.667  1.00  0.00     0.071 A 
ENDROOT
BRANCH   1   8
ATOM      8  C   UNL     1     130.782 118.643 131.714  1.00  0.00     0.259 C 
ATOM      9  O   UNL     1     130.846 119.052 130.562  1.00  0.00    -0.269 OA
ATOM     10  N   UNL     1     130.583 117.344 132.135  1.00  0.00    -0.322 N 
ATOM     11  H   UNL     1     130.599 117.172 133.136  1.00  0.00     0.170 HD
BRANCH  10  12
ATOM     12  C   UNL     1     130.396 116.200 131.331  1.00  0.00     0.042 A 
ATOM     13  C   UNL     1     129.155 115.616 131.081  1.00  0.00     0.026 A 
ATOM     14  C   UNL     1     131.543 115.628 130.757  1.00  0.00     0.034 A 
ATOM     15  C   UNL     1     129.061 114.483 130.271  1.00  0.00     0.003 A 
ATOM     16  C   UNL     1     131.469 114.487 129.938  1.00  0.00    -0.016 A 
ATOM     17  C   UNL     1     130.206 113.925 129.704  1.00  0.00     0.009 A 
BRANCH  16  18
ATOM     18  C   UNL     1     132.682 113.902 129.342  1.00  0.00    -0.018 A 
ATOM     19  C   UNL     1     132.629 113.218 128.116  1.00  0.00     0.009 A 
ATOM     20  C   UNL     1     133.927 114.011 129.982  1.00  0.00     0.009 A 
ATOM     21  C   UNL     1     133.779 112.664 127.549  1.00  0.00     0.001 A 
ATOM     22  C   UNL     1     135.080 113.456 129.417  1.00  0.00     0.001 A 
ATOM     23  C   UNL     1     135.004 112.784 128.200  1.00  0.00     0.000 A 
ENDBRANCH  16  18
ENDBRANCH  10  12
ENDBRANCH   1   8
BRANCH   7  24
ATOM     24  C   UNL     1     132.585 120.990 131.406  1.00  0.00     0.417 C 
ATOM     25  F   UNL     1     133.337 119.926 131.021  1.00  0.00    -0.166 F 
ATOM     26  F   UNL     1     131.823 121.364 130.344  1.00  0.00    -0.166 F 
ATOM     27  F   UNL     1     133.480 122.015 131.565  1.00  0.00    -0.166 F 
ENDBRANCH   7  24
BRANCH   4  28
ATOM     28  C   UNL     1     129.443 120.189 136.270  1.00  0.00     0.180 C 
BRANCH  28  29
ATOM     29  S   UNL     1     130.156 118.871 137.253  1.00  0.00     0.182 S 
ATOM     30  O   UNL     1     130.237 119.289 138.641  1.00  0.00    -0.223 OA
ATOM     31  O   UNL     1     131.331 118.366 136.564  1.00  0.00    -0.223 OA
BRANCH  29  32
ATOM     32  C   UNL     1     128.907 117.607 137.160  1.00  0.00     0.067 A 
ATOM     33  C   UNL     1     127.599 117.907 137.548  1.00  0.00     0.020 A 
ATOM     34  C   UNL     1     129.251 116.323 136.728  1.00  0.00     0.020 A 
ATOM     35  C   UNL     1     126.620 116.916 137.476  1.00  0.00     0.001 A 
ATOM     36  C   UNL     1     128.266 115.339 136.659  1.00  0.00     0.001 A 
ATOM     37  C   UNL     1     126.954 115.636 137.030  1.00  0.00     0.000 A 
ENDBRANCH  29  32
ENDBRANCH  28  29
ENDBRANCH   4  28
TORSDOF 7
ENDMDL
MODEL 2
REMARK VINA RESULT:     -13.3      0.601      1.335
REMARK SMILES O=C(Nc1cccc(-c2ccccc2)c1)c1c(C(F)(F)F)ccc(CS(=O)(=O)c2ccccc2)c1F
REMARK SMILES IDX 16 1 35 2 36 3 24 4 23 5 22 6 17 7 2 8 1 9 3 10 4 12 5 13
REMARK SMILES IDX 15 14 6 15 8 16 7 17 9 18 10 19 14 20 11 21 13 22 12 23
REMARK SMILES IDX 18 24 19 25 20 26 21 27 25 28 26 29 27 30 28 31 29 32 30 33
REMARK SMILES IDX 34 34 31 35 33 36 32 37
REMARK H PARENT 3 11
REMARK Flexibility Score: inf
ROOT
ATOM      1  C   UNL     1     130.754 119.461 132.981  1.00  0.00     0.088 A 
ATOM      2  C   UNL     1     130.042 119.254 134.168  1.00  0.00     0.140 A 
ATOM      3  F   UNL     1     129.227 118.195 134.288  1.00  0.00    -0.206 F 
ATOM      4  C   UNL     1     130.149 120.131 135.253  1.00  0.00     0.004 A 
ATOM      5  C   UNL     1     131.008 121.229 135.145  1.00  0.00     0.008 A 
ATOM      6  C   UNL     1     131.736 121.438 133.971  1.00  0.00     0.014 A 
ATOM      7  C   UNL     1     131.615 120.566 132.869  1.00  0.00     0.071 A 
ENDROOT
BRANCH   1   8
ATOM      8  C   UNL     1     130.610 118.485 131.874  1.00  0.00     0.259 C 
ATOM      9  O   UNL     1     130.683 118.919 130.733  1.00  0.00    -0.269 OA
ATOM     10  N   UNL     1     130.397 117.178 132.265  1.00  0.00    -0.322 N 
ATOM     11  H   UNL     1     130.407 116.983 133.262  1.00  0.00     0.170 HD
BRANCH  10  12
ATOM     12  C   UNL     1     130.203 116.054 131.434  1.00  0.00     0.042 A 
ATOM     13  C   UNL     1     128.952 115.530 131.111  1.00  0.00     0.026 A 
ATOM     14  C   UNL     1     131.351 115.440 130.913  1.00  0.00     0.034 A 
ATOM     15  C   UNL     1     128.850 114.414 130.280  1.00  0.00     0.003 A 
ATOM     16  C   UNL     1     131.270 114.314 130.072  1.00  0.00    -0.016 A 
ATOM     17  C   UNL     1     129.998 113.812 129.764  1.00  0.00     0.009 A 
BRANCH  16  18
ATOM     18  C   UNL     1     132.486 113.683 129.532  1.00  0.00    -0.018 A 
ATOM     19  C   UNL     1     133.440 113.102 130.385  1.00  0.00     0.009 A 
ATOM     20  C   UNL     1     132.728 113.642 128.149  1.00  0.00     0.009 A 
ATOM     21  C   UNL     1     134.594 112.502 129.874  1.00  0.00     0.001 A 
ATOM     22  C   UNL     1     133.882 113.043 127.636  1.00  0.00     0.001 A 
ATOM     23  C   UNL     1     134.813 112.473 128.499  1.00  0.00     0.000 A 
ENDBRANCH  16  18
ENDBRANCH  10  12
ENDBRANCH   1   8
BRANCH   7  24
ATOM     24  C   UNL     1     132.393 120.851 131.606  1.00  0.00     0.417 C 
ATOM     25  F   UNL     1     133.253 121.897 131.724  1.00  0.00    -0.166 F 
ATOM     26  F   UNL     1     133.100 119.785 131.146  1.00  0.00    -0.166 F 
ATOM     27  F   UNL     1     131.568 121.191 130.567  1.00  0.00    -0.166 F 
ENDBRANCH   7  24
BRANCH   4  28
ATOM     28  C   UNL     1     129.312 119.907 136.483  1.00  0.00     0.180 C 
BRANCH  28  29
ATOM     29  S   UNL     1     130.144 118.702 137.516  1.00  0.00     0.182 S 
ATOM     30  O   UNL     1     130.440 119.293 138.809  1.00  0.00    -0.223 OA
ATOM     31  O   UNL     1     131.193 118.072 136.735  1.00  0.00    -0.223 OA
BRANCH  29  32
ATOM     32  C   UNL     1     128.876 117.482 137.777  1.00  0.00     0.067 A 
ATOM     33  C   UNL     1     128.719 116.448 136.851  1.00  0.00     0.020 A 
ATOM     34  C   UNL     1     128.033 117.585 138.887  1.00  0.00     0.020 A 
ATOM     35  C   UNL     1     127.723 115.492 137.055  1.00  0.00     0.001 A 
ATOM     36  C   UNL     1     127.041 116.625 139.084  1.00  0.00     0.001 A 
ATOM     37  C   UNL     1     126.889 115.580 138.171  1.00  0.00     0.000 A 
ENDBRANCH  29  32
ENDBRANCH  28  29
ENDBRANCH   4  28
TORSDOF 7
ENDMDL
MODEL 3
REMARK VINA RESULT:     -13.3      0.627      1.028
REMARK SMILES O=C(Nc1cccc(-c2ccccc2)c1)c1c(C(F)(F)F)ccc(CS(=O)(=O)c2ccccc2)c1F
REMARK SMILES IDX 16 1 35 2 36 3 24 4 23 5 22 6 17 7 2 8 1 9 3 10 4 12 5 13
REMARK SMILES IDX 15 14 6 15 8 16 7 17 9 18 10 19 14 20 11 21 13 22 12 23
REMARK SMILES IDX 18 24 19 25 20 26 21 27 25 28 26 29 27 30 28 31 29 32 30 33
REMARK SMILES IDX 34 34 31 35 33 36 32 37
REMARK H PARENT 3 11
REMARK Flexibility Score: inf
ROOT
ATOM      1  C   UNL     1     130.856 119.613 132.853  1.00  0.00     0.088 A 
ATOM      2  C   UNL     1     130.120 119.472 134.035  1.00  0.00     0.140 A 
ATOM      3  F   UNL     1     129.262 118.450 134.176  1.00  0.00    -0.206 F 
ATOM      4  C   UNL     1     130.247 120.378 135.094  1.00  0.00     0.004 A 
ATOM      5  C   UNL     1     131.151 121.436 134.966  1.00  0.00     0.008 A 
ATOM      6  C   UNL     1     131.903 121.579 133.797  1.00  0.00     0.014 A 
ATOM      7  C   UNL     1     131.762 120.679 132.720  1.00  0.00     0.071 A 
ENDROOT
BRANCH   1   8
ATOM      8  C   UNL     1     130.688 118.609 131.775  1.00  0.00     0.259 C 
ATOM      9  O   UNL     1     130.744 119.013 130.622  1.00  0.00    -0.269 OA
ATOM     10  N   UNL     1     130.475 117.314 132.204  1.00  0.00    -0.322 N 
ATOM     11  H   UNL     1     130.500 117.145 133.205  1.00  0.00     0.170 HD
BRANCH  10  12
ATOM     12  C   UNL     1     130.260 116.170 131.406  1.00  0.00     0.042 A 
ATOM     13  C   UNL     1     129.001 115.653 131.108  1.00  0.00     0.026 A 
ATOM     14  C   UNL     1     131.397 115.528 130.892  1.00  0.00     0.034 A 
ATOM     15  C   UNL     1     128.879 114.515 130.309  1.00  0.00     0.003 A 
ATOM     16  C   UNL     1     131.296 114.380 130.084  1.00  0.00    -0.016 A 
ATOM     17  C   UNL     1     130.015 113.886 129.800  1.00  0.00     0.009 A 
BRANCH  16  18
ATOM     18  C   UNL     1     132.499 113.721 129.552  1.00  0.00    -0.018 A 
ATOM     19  C   UNL     1     133.412 113.080 130.407  1.00  0.00     0.009 A 
ATOM     20  C   UNL     1     132.771 113.712 128.174  1.00  0.00     0.009 A 
ATOM     21  C   UNL     1     134.554 112.452 129.903  1.00  0.00     0.001 A 
ATOM     22  C   UNL     1     133.914 113.085 127.667  1.00  0.00     0.001 A 
ATOM     23  C   UNL     1     134.804 112.455 128.533  1.00  0.00     0.000 A 
ENDBRANCH  16  18
ENDBRANCH  10  12
ENDBRANCH   1   8
BRANCH   7  24
ATOM     24  C   UNL     1     132.569 120.893 131.461  1.00  0.00     0.417 C 
ATOM     25  F   UNL     1     133.262 119.793 131.068  1.00  0.00    -0.166 F 
ATOM     26  F   UNL     1     131.828 121.315 130.402  1.00  0.00    -0.166 F 
ATOM     27  F   UNL     1     133.519 121.866 131.627  1.00  0.00    -0.166 F 
ENDBRANCH   7  24
BRANCH   4  28
ATOM     28  C   UNL     1     129.385 120.225 136.318  1.00  0.00     0.180 C 
BRANCH  28  29
ATOM     29  S   UNL     1     130.101 118.951 137.355  1.00  0.00     0.182 S 
ATOM     30  O   UNL     1     130.513 119.530 138.621  1.00  0.00    -0.223 OA
ATOM     31  O   UNL     1     131.037 118.180 136.556  1.00  0.00    -0.223 OA
BRANCH  29  32
ATOM     32  C   UNL     1     128.704 117.902 137.690  1.00  0.00     0.067 A 
ATOM     33  C   UNL     1     128.411 117.552 139.011  1.00  0.00     0.020 A 
ATOM     34  C   UNL     1     127.931 117.417 136.631  1.00  0.00     0.020 A 
ATOM     35  C   UNL     1     127.316 116.729 139.273  1.00  0.00     0.001 A 
ATOM     36  C   UNL     1     126.839 116.594 136.903  1.00  0.00     0.001 A 
ATOM     37  C   UNL     1     126.531 116.254 138.221  1.00  0.00     0.000 A 
ENDBRANCH  29  32
ENDBRANCH  28  29
ENDBRANCH   4  28
TORSDOF 7
ENDMDL
MODEL 4
REMARK VINA RESULT:     -13.2      0.613      1.065
REMARK SMILES O=C(Nc1cccc(-c2ccccc2)c1)c1c(C(F)(F)F)ccc(CS(=O)(=O)c2ccccc2)c1F
REMARK SMILES IDX 16 1 35 2 36 3 24 4 23 5 22 6 17 7 2 8 1 9 3 10 4 12 5 13
REMARK SMILES IDX 15 14 6 15 8 16 7 17 9 18 10 19 14 20 11 21 13 22 12 23
REMARK SMILES IDX 18 24 19 25 20 26 21 27 25 28 26 29 27 30 28 31 29 32 30 33
REMARK SMILES IDX 34 34 31 35 33 36 32 37
REMARK H PARENT 3 11
REMARK Flexibility Score: inf
ROOT
ATOM      1  C   UNL     1     130.820 119.548 132.887  1.00  0.00     0.088 A 
ATOM      2  C   UNL     1     130.091 119.373 134.068  1.00  0.00     0.140 A 
ATOM      3  F   UNL     1     129.256 118.331 134.196  1.00  0.00    -0.206 F 
ATOM      4  C   UNL     1     130.202 120.265 135.141  1.00  0.00     0.004 A 
ATOM      5  C   UNL     1     131.082 121.345 135.026  1.00  0.00     0.008 A 
ATOM      6  C   UNL     1     131.827 121.523 133.857  1.00  0.00     0.014 A 
ATOM      7  C   UNL     1     131.702 120.636 132.767  1.00  0.00     0.071 A 
ENDROOT
BRANCH   1   8
ATOM      8  C   UNL     1     130.671 118.558 131.794  1.00  0.00     0.259 C 
ATOM      9  O   UNL     1     130.748 118.975 130.646  1.00  0.00    -0.269 OA
ATOM     10  N   UNL     1     130.449 117.258 132.203  1.00  0.00    -0.322 N 
ATOM     11  H   UNL     1     130.457 117.077 133.202  1.00  0.00     0.170 HD
BRANCH  10  12
ATOM     12  C   UNL     1     130.248 116.124 131.388  1.00  0.00     0.042 A 
ATOM     13  C   UNL     1     128.994 115.607 131.066  1.00  0.00     0.026 A 
ATOM     14  C   UNL     1     131.393 115.491 130.881  1.00  0.00     0.034 A 
ATOM     15  C   UNL     1     128.886 114.479 130.251  1.00  0.00     0.003 A 
ATOM     16  C   UNL     1     131.306 114.354 130.057  1.00  0.00    -0.016 A 
ATOM     17  C   UNL     1     130.031 113.860 129.750  1.00  0.00     0.009 A 
BRANCH  16  18
ATOM     18  C   UNL     1     132.518 113.704 129.532  1.00  0.00    -0.018 A 
ATOM     19  C   UNL     1     132.797 113.697 128.155  1.00  0.00     0.009 A 
ATOM     20  C   UNL     1     133.431 113.072 130.392  1.00  0.00     0.009 A 
ATOM     21  C   UNL     1     133.948 113.081 127.655  1.00  0.00     0.001 A 
ATOM     22  C   UNL     1     134.583 112.455 129.894  1.00  0.00     0.001 A 
ATOM     23  C   UNL     1     134.840 112.461 128.526  1.00  0.00     0.000 A 
ENDBRANCH  16  18
ENDBRANCH  10  12
ENDBRANCH   1   8
BRANCH   7  24
ATOM     24  C   UNL     1     132.500 120.887 131.509  1.00  0.00     0.417 C 
ATOM     25  F   UNL     1     131.732 121.218 130.438  1.00  0.00    -0.166 F 
ATOM     26  F   UNL     1     133.452 121.848 131.648  1.00  0.00    -0.166 F 
ATOM     27  F   UNL     1     133.191 119.772 131.115  1.00  0.00    -0.166 F 
ENDBRANCH   7  24
BRANCH   4  28
ATOM     28  C   UNL     1     129.347 120.075 136.364  1.00  0.00     0.180 C 
BRANCH  28  29
ATOM     29  S   UNL     1     130.116 118.830 137.399  1.00  0.00     0.182 S 
ATOM     30  O   UNL     1     130.462 119.411 138.683  1.00  0.00    -0.223 OA
ATOM     31  O   UNL     1     131.115 118.130 136.611  1.00  0.00    -0.223 OA
BRANCH  29  32
ATOM     32  C   UNL     1     128.778 117.692 137.684  1.00  0.00     0.067 A 
ATOM     33  C   UNL     1     128.244 116.979 136.608  1.00  0.00     0.020 A 
ATOM     34  C   UNL     1     128.258 117.543 138.973  1.00  0.00     0.020 A 
ATOM     35  C   UNL     1     127.195 116.088 136.832  1.00  0.00     0.001 A 
ATOM     36  C   UNL     1     127.209 116.650 139.187  1.00  0.00     0.001 A 
ATOM     37  C   UNL     1     126.681 115.923 138.119  1.00  0.00     0.000 A 
ENDBRANCH  29  32
ENDBRANCH  28  29
ENDBRANCH   4  28
TORSDOF 7
ENDMDL
MODEL 5
REMARK VINA RESULT:     -12.9      0.695      1.243
REMARK SMILES O=C(Nc1cccc(-c2ccccc2)c1)c1c(C(F)(F)F)ccc(CS(=O)(=O)c2ccccc2)c1F
REMARK SMILES IDX 16 1 35 2 36 3 24 4 23 5 22 6 17 7 2 8 1 9 3 10 4 12 5 13
REMARK SMILES IDX 15 14 6 15 8 16 7 17 9 18 10 19 14 20 11 21 13 22 12 23
REMARK SMILES IDX 18 24 19 25 20 26 21 27 25 28 26 29 27 30 28 31 29 32 30 33
REMARK SMILES IDX 34 34 31 35 33 36 32 37
REMARK H PARENT 3 11
REMARK Flexibility Score: inf
ROOT
ATOM      1  C   UNL     1     130.676 119.604 132.704  1.00  0.00     0.088 A 
ATOM      2  C   UNL     1     129.772 119.551 133.770  1.00  0.00     0.140 A 
ATOM      3  F   UNL     1     128.842 118.585 133.817  1.00  0.00    -0.206 F 
ATOM      4  C   UNL     1     129.801 120.490 134.807  1.00  0.00     0.004 A 
ATOM      5  C   UNL     1     130.777 121.491 134.778  1.00  0.00     0.008 A 
ATOM      6  C   UNL     1     131.696 121.545 133.726  1.00  0.00     0.014 A 
ATOM      7  C   UNL     1     131.655 120.611 132.670  1.00  0.00     0.071 A 
ENDROOT
BRANCH   1   8
ATOM      8  C   UNL     1     130.603 118.569 131.645  1.00  0.00     0.259 C 
ATOM      9  O   UNL     1     130.779 118.936 130.491  1.00  0.00    -0.269 OA
ATOM     10  N   UNL     1     130.332 117.290 132.089  1.00  0.00    -0.322 N 
ATOM     11  H   UNL     1     130.256 117.152 133.092  1.00  0.00     0.170 HD
BRANCH  10  12
ATOM     12  C   UNL     1     130.183 116.124 131.308  1.00  0.00     0.042 A 
ATOM     13  C   UNL     1     128.952 115.571 130.959  1.00  0.00     0.026 A 
ATOM     14  C   UNL     1     131.358 115.496 130.868  1.00  0.00     0.034 A 
ATOM     15  C   UNL     1     128.895 114.413 130.182  1.00  0.00     0.003 A 
ATOM     16  C   UNL     1     131.323 114.328 130.083  1.00  0.00    -0.016 A 
ATOM     17  C   UNL     1     130.069 113.799 129.747  1.00  0.00     0.009 A 
BRANCH  16  18
ATOM     18  C   UNL     1     132.566 113.684 129.629  1.00  0.00    -0.018 A 
ATOM     19  C   UNL     1     133.355 112.928 130.512  1.00  0.00     0.009 A 
ATOM     20  C   UNL     1     133.000 113.805 128.298  1.00  0.00     0.009 A 
ATOM     21  C   UNL     1     134.534 112.315 130.082  1.00  0.00     0.001 A 
ATOM     22  C   UNL     1     134.180 113.192 127.865  1.00  0.00     0.001 A 
ATOM     23  C   UNL     1     134.945 112.448 128.758  1.00  0.00     0.000 A 
ENDBRANCH  16  18
ENDBRANCH  10  12
ENDBRANCH   1   8
BRANCH   7  24
ATOM     24  C   UNL     1     132.645 120.730 131.534  1.00  0.00     0.417 C 
ATOM     25  F   UNL     1     133.304 119.572 131.268  1.00  0.00    -0.166 F 
ATOM     26  F   UNL     1     132.094 121.169 130.372  1.00  0.00    -0.166 F 
ATOM     27  F   UNL     1     133.631 121.639 131.814  1.00  0.00    -0.166 F 
ENDBRANCH   7  24
BRANCH   4  28
ATOM     28  C   UNL     1     128.766 120.435 135.897  1.00  0.00     0.180 C 
BRANCH  28  29
ATOM     29  S   UNL     1     129.364 119.342 137.186  1.00  0.00     0.182 S 
ATOM     30  O   UNL     1     128.774 119.722 138.457  1.00  0.00    -0.223 OA
ATOM     31  O   UNL     1     130.803 119.214 137.049  1.00  0.00    -0.223 OA
BRANCH  29  32
ATOM     32  C   UNL     1     128.648 117.780 136.724  1.00  0.00     0.067 A 
ATOM     33  C   UNL     1     129.481 116.749 136.283  1.00  0.00     0.020 A 
ATOM     34  C   UNL     1     127.262 117.609 136.780  1.00  0.00     0.020 A 
ATOM     35  C   UNL     1     128.920 115.525 135.920  1.00  0.00     0.001 A 
ATOM     36  C   UNL     1     126.710 116.382 136.415  1.00  0.00     0.001 A 
ATOM     37  C   UNL     1     127.538 115.342 135.989  1.00  0.00     0.000 A 
ENDBRANCH  29  32
ENDBRANCH  28  29
ENDBRANCH   4  28
TORSDOF 7
ENDMDL
MODEL 6
REMARK VINA RESULT:     -12.8      1.269      1.454
REMARK SMILES O=C(Nc1cccc(-c2ccccc2)c1)c1c(C(F)(F)F)ccc(CS(=O)(=O)c2ccccc2)c1F
REMARK SMILES IDX 16 1 35 2 36 3 24 4 23 5 22 6 17 7 2 8 1 9 3 10 4 12 5 13
REMARK SMILES IDX 15 14 6 15 8 16 7 17 9 18 10 19 14 20 11 21 13 22 12 23
REMARK SMILES IDX 18 24 19 25 20 26 21 27 25 28 26 29 27 30 28 31 29 32 30 33
REMARK SMILES IDX 34 34 31 35 33 36 32 37
REMARK H PARENT 3 11
REMARK Flexibility Score: inf
ROOT
ATOM      1  C   UNL     1     131.407 119.462 132.841  1.00  0.00     0.088 A 
ATOM      2  C   UNL     1     130.997 119.317 134.171  1.00  0.00     0.140 A 
ATOM      3  F   UNL     1     130.640 118.111 134.637  1.00  0.00    -0.206 F 
ATOM      4  C   UNL     1     130.941 120.406 135.047  1.00  0.00     0.004 A 
ATOM      5  C   UNL     1     131.328 121.665 134.577  1.00  0.00     0.008 A 
ATOM      6  C   UNL     1     131.754 121.821 133.255  1.00  0.00     0.014 A 
ATOM      7  C   UNL     1     131.792 120.727 132.365  1.00  0.00     0.071 A 
ENDROOT
BRANCH   1   8
ATOM      8  C   UNL     1     131.461 118.265 131.968  1.00  0.00     0.259 C 
ATOM      9  O   UNL     1     132.469 118.110 131.293  1.00  0.00    -0.269 OA
ATOM     10  N   UNL     1     130.344 117.454 132.011  1.00  0.00    -0.322 N 
ATOM     11  H   UNL     1     129.609 117.709 132.664  1.00  0.00     0.170 HD
BRANCH  10  12
ATOM     12  C   UNL     1     130.113 116.273 131.275  1.00  0.00     0.042 A 
ATOM     13  C   UNL     1     128.848 115.733 131.044  1.00  0.00     0.026 A 
ATOM     14  C   UNL     1     131.237 115.615 130.753  1.00  0.00     0.034 A 
ATOM     15  C   UNL     1     128.708 114.559 130.303  1.00  0.00     0.003 A 
ATOM     16  C   UNL     1     131.118 114.430 130.002  1.00  0.00    -0.016 A 
ATOM     17  C   UNL     1     129.833 113.915 129.785  1.00  0.00     0.009 A 
BRANCH  16  18
ATOM     18  C   UNL     1     132.308 113.754 129.461  1.00  0.00    -0.018 A 
ATOM     19  C   UNL     1     132.486 113.602 128.075  1.00  0.00     0.009 A 
ATOM     20  C   UNL     1     133.301 113.243 130.312  1.00  0.00     0.009 A 
ATOM     21  C   UNL     1     133.615 112.961 127.559  1.00  0.00     0.001 A 
ATOM     22  C   UNL     1     134.432 112.601 129.798  1.00  0.00     0.001 A 
ATOM     23  C   UNL     1     134.588 112.462 128.421  1.00  0.00     0.000 A 
ENDBRANCH  16  18
ENDBRANCH  10  12
ENDBRANCH   1   8
BRANCH   7  24
ATOM     24  C   UNL     1     132.225 120.949 130.934  1.00  0.00     0.417 C 
ATOM     25  F   UNL     1     133.492 120.527 130.681  1.00  0.00    -0.166 F 
ATOM     26  F   UNL     1     131.405 120.368 130.019  1.00  0.00    -0.166 F 
ATOM     27  F   UNL     1     132.224 122.278 130.604  1.00  0.00    -0.166 F 
ENDBRANCH   7  24
BRANCH   4  28
ATOM     28  C   UNL     1     130.428 120.215 136.448  1.00  0.00     0.180 C 
BRANCH  28  29
ATOM     29  S   UNL     1     128.637 120.200 136.394  1.00  0.00     0.182 S 
ATOM     30  O   UNL     1     128.194 120.129 135.013  1.00  0.00    -0.223 OA
ATOM     31  O   UNL     1     128.141 121.240 137.276  1.00  0.00    -0.223 OA
BRANCH  29  32
ATOM     32  C   UNL     1     128.246 118.637 137.149  1.00  0.00     0.067 A 
ATOM     33  C   UNL     1     128.362 118.497 138.534  1.00  0.00     0.020 A 
ATOM     34  C   UNL     1     127.854 117.559 136.350  1.00  0.00     0.020 A 
ATOM     35  C   UNL     1     128.056 117.272 139.126  1.00  0.00     0.001 A 
ATOM     36  C   UNL     1     127.551 116.338 136.950  1.00  0.00     0.001 A 
ATOM     37  C   UNL     1     127.649 116.197 138.335  1.00  0.00     0.000 A 
ENDBRANCH  29  32
ENDBRANCH  28  29
ENDBRANCH   4  28
TORSDOF 7
ENDMDL
MODEL 7
REMARK VINA RESULT:     -12.7      1.259      1.663
REMARK SMILES O=C(Nc1cccc(-c2ccccc2)c1)c1c(C(F)(F)F)ccc(CS(=O)(=O)c2ccccc2)c1F
REMARK SMILES IDX 16 1 35 2 36 3 24 4 23 5 22 6 17 7 2 8 1 9 3 10 4 12 5 13
REMARK SMILES IDX 15 14 6 15 8 16 7 17 9 18 10 19 14 20 11 21 13 22 12 23
REMARK SMILES IDX 18 24 19 25 20 26 21 27 25 28 26 29 27 30 28 31 29 32 30 33
REMARK SMILES IDX 34 34 31 35 33 36 32 37
REMARK H PARENT 3 11
REMARK Flexibility Score: inf
ROOT
ATOM      1  C   UNL     1     131.381 119.445 132.847  1.00  0.00     0.088 A 
ATOM      2  C   UNL     1     130.979 119.288 134.178  1.00  0.00     0.140 A 
ATOM      3  F   UNL     1     130.631 118.077 134.638  1.00  0.00    -0.206 F 
ATOM      4  C   UNL     1     130.924 120.371 135.063  1.00  0.00     0.004 A 
ATOM      5  C   UNL     1     131.301 121.635 134.600  1.00  0.00     0.008 A 
ATOM      6  C   UNL     1     131.719 121.802 133.277  1.00  0.00     0.014 A 
ATOM      7  C   UNL     1     131.757 120.716 132.378  1.00  0.00     0.071 A 
ENDROOT
BRANCH   1   8
ATOM      8  C   UNL     1     131.435 118.255 131.965  1.00  0.00     0.259 C 
ATOM      9  O   UNL     1     132.435 118.116 131.275  1.00  0.00    -0.269 OA
ATOM     10  N   UNL     1     130.327 117.432 132.018  1.00  0.00    -0.322 N 
ATOM     11  H   UNL     1     129.599 117.674 132.683  1.00  0.00     0.170 HD
BRANCH  10  12
ATOM     12  C   UNL     1     130.098 116.253 131.276  1.00  0.00     0.042 A 
ATOM     13  C   UNL     1     128.834 115.716 131.038  1.00  0.00     0.026 A 
ATOM     14  C   UNL     1     131.224 115.596 130.758  1.00  0.00     0.034 A 
ATOM     15  C   UNL     1     128.697 114.544 130.292  1.00  0.00     0.003 A 
ATOM     16  C   UNL     1     131.107 114.414 130.003  1.00  0.00    -0.016 A 
ATOM     17  C   UNL     1     129.823 113.900 129.778  1.00  0.00     0.009 A 
BRANCH  16  18
ATOM     18  C   UNL     1     132.299 113.739 129.464  1.00  0.00    -0.018 A 
ATOM     19  C   UNL     1     133.305 113.255 130.318  1.00  0.00     0.009 A 
ATOM     20  C   UNL     1     132.467 113.558 128.082  1.00  0.00     0.009 A 
ATOM     21  C   UNL     1     134.437 112.613 129.809  1.00  0.00     0.001 A 
ATOM     22  C   UNL     1     133.598 112.916 127.569  1.00  0.00     0.001 A 
ATOM     23  C   UNL     1     134.582 112.444 128.434  1.00  0.00     0.000 A 
ENDBRANCH  16  18
ENDBRANCH  10  12
ENDBRANCH   1   8
BRANCH   7  24
ATOM     24  C   UNL     1     132.180 120.950 130.947  1.00  0.00     0.417 C 
ATOM     25  F   UNL     1     131.395 120.313 130.039  1.00  0.00    -0.166 F 
ATOM     26  F   UNL     1     132.232 122.263 130.600  1.00  0.00    -0.166 F 
ATOM     27  F   UNL     1     133.444 120.480 130.709  1.00  0.00    -0.166 F 
ENDBRANCH   7  24
BRANCH   4  28
ATOM     28  C   UNL     1     130.420 120.167 136.466  1.00  0.00     0.180 C 
BRANCH  28  29
ATOM     29  S   UNL     1     128.628 120.165 136.426  1.00  0.00     0.182 S 
ATOM     30  O   UNL     1     128.174 120.120 135.048  1.00  0.00    -0.223 OA
ATOM     31  O   UNL     1     128.147 121.194 137.329  1.00  0.00    -0.223 OA
BRANCH  29  32
ATOM     32  C   UNL     1     128.232 118.593 137.158  1.00  0.00     0.067 A 
ATOM     33  C   UNL     1     128.333 118.437 138.543  1.00  0.00     0.020 A 
ATOM     34  C   UNL     1     127.850 117.524 136.342  1.00  0.00     0.020 A 
ATOM     35  C   UNL     1     128.023 117.204 139.117  1.00  0.00     0.001 A 
ATOM     36  C   UNL     1     127.542 116.296 136.924  1.00  0.00     0.001 A 
ATOM     37  C   UNL     1     127.626 116.138 138.308  1.00  0.00     0.000 A 
ENDBRANCH  29  32
ENDBRANCH  28  29
ENDBRANCH   4  28
TORSDOF 7
ENDMDL
MODEL 8
REMARK VINA RESULT:     -12.7      0.845      1.478
REMARK SMILES O=C(Nc1cccc(-c2ccccc2)c1)c1c(C(F)(F)F)ccc(CS(=O)(=O)c2ccccc2)c1F
REMARK SMILES IDX 16 1 35 2 36 3 24 4 23 5 22 6 17 7 2 8 1 9 3 10 4 12 5 13
REMARK SMILES IDX 15 14 6 15 8 16 7 17 9 18 10 19 14 20 11 21 13 22 12 23
REMARK SMILES IDX 18 24 19 25 20 26 21 27 25 28 26 29 27 30 28 31 29 32 30 33
REMARK SMILES IDX 34 34 31 35 33 36 32 37
REMARK H PARENT 3 11
REMARK Flexibility Score: inf
ROOT
ATOM      1  C   UNL     1     130.717 119.776 132.657  1.00  0.00     0.088 A 
ATOM      2  C   UNL     1     129.749 119.665 133.662  1.00  0.00     0.140 A 
ATOM      3  F   UNL     1     128.875 118.647 133.645  1.00  0.00    -0.206 F 
ATOM      4  C   UNL     1     129.658 120.597 134.702  1.00  0.00     0.004 A 
ATOM      5  C   UNL     1     130.575 121.651 134.739  1.00  0.00     0.008 A 
ATOM      6  C   UNL     1     131.556 121.764 133.750  1.00  0.00     0.014 A 
ATOM      7  C   UNL     1     131.637 120.837 132.690  1.00  0.00     0.071 A 
ENDROOT
BRANCH   1   8
ATOM      8  C   UNL     1     130.772 118.745 131.592  1.00  0.00     0.259 C 
ATOM      9  O   UNL     1     130.863 119.139 130.438  1.00  0.00    -0.269 OA
ATOM     10  N   UNL     1     130.704 117.439 132.033  1.00  0.00    -0.322 N 
ATOM     11  H   UNL     1     130.673 117.287 133.036  1.00  0.00     0.170 HD
BRANCH  10  12
ATOM     12  C   UNL     1     130.710 116.267 131.247  1.00  0.00     0.042 A 
ATOM     13  C   UNL     1     129.558 115.600 130.832  1.00  0.00     0.026 A 
ATOM     14  C   UNL     1     131.962 115.755 130.873  1.00  0.00     0.034 A 
ATOM     15  C   UNL     1     129.655 114.445 130.055  1.00  0.00     0.003 A 
ATOM     16  C   UNL     1     132.081 114.593 130.089  1.00  0.00    -0.016 A 
ATOM     17  C   UNL     1     130.905 113.947 129.685  1.00  0.00     0.009 A 
BRANCH  16  18
ATOM     18  C   UNL     1     133.403 114.072 129.704  1.00  0.00    -0.018 A 
ATOM     19  C   UNL     1     134.534 114.907 129.687  1.00  0.00     0.009 A 
ATOM     20  C   UNL     1     133.574 112.726 129.341  1.00  0.00     0.009 A 
ATOM     21  C   UNL     1     135.789 114.414 129.323  1.00  0.00     0.001 A 
ATOM     22  C   UNL     1     134.829 112.230 128.975  1.00  0.00     0.001 A 
ATOM     23  C   UNL     1     135.936 113.075 128.967  1.00  0.00     0.000 A 
ENDBRANCH  16  18
ENDBRANCH  10  12
ENDBRANCH   1   8
BRANCH   7  24
ATOM     24  C   UNL     1     132.691 121.019 131.623  1.00  0.00     0.417 C 
ATOM     25  F   UNL     1     133.656 121.914 131.961  1.00  0.00    -0.166 F 
ATOM     26  F   UNL     1     133.307 119.863 131.260  1.00  0.00    -0.166 F 
ATOM     27  F   UNL     1     132.155 121.504 130.459  1.00  0.00    -0.166 F 
ENDBRANCH   7  24
BRANCH   4  28
ATOM     28  C   UNL     1     128.558 120.476 135.721  1.00  0.00     0.180 C 
BRANCH  28  29
ATOM     29  S   UNL     1     129.156 119.465 137.075  1.00  0.00     0.182 S 
ATOM     30  O   UNL     1     128.480 119.847 138.302  1.00  0.00    -0.223 OA
ATOM     31  O   UNL     1     130.606 119.424 137.013  1.00  0.00    -0.223 OA
BRANCH  29  32
ATOM     32  C   UNL     1     128.564 117.847 136.634  1.00  0.00     0.067 A 
ATOM     33  C   UNL     1     129.461 116.902 136.129  1.00  0.00     0.020 A 
ATOM     34  C   UNL     1     127.205 117.545 136.769  1.00  0.00     0.020 A 
ATOM     35  C   UNL     1     128.996 115.634 135.783  1.00  0.00     0.001 A 
ATOM     36  C   UNL     1     126.749 116.275 136.420  1.00  0.00     0.001 A 
ATOM     37  C   UNL     1     127.644 115.321 135.931  1.00  0.00     0.000 A 
ENDBRANCH  29  32
ENDBRANCH  28  29
ENDBRANCH   4  28
TORSDOF 7
ENDMDL
MODEL 9
REMARK VINA RESULT:     -12.6      1.262      1.829
REMARK SMILES O=C(Nc1cccc(-c2ccccc2)c1)c1c(C(F)(F)F)ccc(CS(=O)(=O)c2ccccc2)c1F
REMARK SMILES IDX 16 1 35 2 36 3 24 4 23 5 22 6 17 7 2 8 1 9 3 10 4 12 5 13
REMARK SMILES IDX 15 14 6 15 8 16 7 17 9 18 10 19 14 20 11 21 13 22 12 23
REMARK SMILES IDX 18 24 19 25 20 26 21 27 25 28 26 29 27 30 28 31 29 32 30 33
REMARK SMILES IDX 34 34 31 35 33 36 32 37
REMARK H PARENT 3 11
REMARK Flexibility Score: inf
ROOT
ATOM      1  C   UNL     1     131.406 119.456 132.835  1.00  0.00     0.088 A 
ATOM      2  C   UNL     1     131.000 119.307 134.166  1.00  0.00     0.140 A 
ATOM      3  F   UNL     1     130.645 118.099 134.630  1.00  0.00    -0.206 F 
ATOM      4  C   UNL     1     130.946 120.394 135.046  1.00  0.00     0.004 A 
ATOM      5  C   UNL     1     131.330 121.654 134.578  1.00  0.00     0.008 A 
ATOM      6  C   UNL     1     131.752 121.814 133.256  1.00  0.00     0.014 A 
ATOM      7  C   UNL     1     131.789 120.723 132.362  1.00  0.00     0.071 A 
ENDROOT
BRANCH   1   8
ATOM      8  C   UNL     1     131.458 118.262 131.959  1.00  0.00     0.259 C 
ATOM      9  O   UNL     1     132.457 118.120 131.266  1.00  0.00    -0.269 OA
ATOM     10  N   UNL     1     130.352 117.438 132.019  1.00  0.00    -0.322 N 
ATOM     11  H   UNL     1     129.625 117.683 132.685  1.00  0.00     0.170 HD
BRANCH  10  12
ATOM     12  C   UNL     1     130.121 116.256 131.284  1.00  0.00     0.042 A 
ATOM     13  C   UNL     1     128.857 115.712 131.060  1.00  0.00     0.026 A 
ATOM     14  C   UNL     1     131.245 115.602 130.757  1.00  0.00     0.034 A 
ATOM     15  C   UNL     1     128.718 114.536 130.320  1.00  0.00     0.003 A 
ATOM     16  C   UNL     1     131.127 114.417 130.007  1.00  0.00    -0.016 A 
ATOM     17  C   UNL     1     129.842 113.896 129.797  1.00  0.00     0.009 A 
BRANCH  16  18
ATOM     18  C   UNL     1     132.316 113.746 129.459  1.00  0.00    -0.018 A 
ATOM     19  C   UNL     1     133.311 113.229 130.307  1.00  0.00     0.009 A 
ATOM     20  C   UNL     1     132.493 113.601 128.073  1.00  0.00     0.009 A 
ATOM     21  C   UNL     1     134.441 112.591 129.788  1.00  0.00     0.001 A 
ATOM     22  C   UNL     1     133.623 112.964 127.552  1.00  0.00     0.001 A 
ATOM     23  C   UNL     1     134.595 112.458 128.411  1.00  0.00     0.000 A 
ENDBRANCH  16  18
ENDBRANCH  10  12
ENDBRANCH   1   8
BRANCH   7  24
ATOM     24  C   UNL     1     132.217 120.949 130.931  1.00  0.00     0.417 C 
ATOM     25  F   UNL     1     132.193 122.255 130.558  1.00  0.00    -0.166 F 
ATOM     26  F   UNL     1     133.454 120.460 130.647  1.00  0.00    -0.166 F 
ATOM     27  F   UNL     1     131.385 120.315 130.046  1.00  0.00    -0.166 F 
ENDBRANCH   7  24
BRANCH   4  28
ATOM     28  C   UNL     1     130.437 120.199 136.448  1.00  0.00     0.180 C 
BRANCH  28  29
ATOM     29  S   UNL     1     128.646 120.172 136.397  1.00  0.00     0.182 S 
ATOM     30  O   UNL     1     128.200 120.107 135.018  1.00  0.00    -0.223 OA
ATOM     31  O   UNL     1     128.145 121.204 137.288  1.00  0.00    -0.223 OA
BRANCH  29  32
ATOM     32  C   UNL     1     128.266 118.603 137.143  1.00  0.00     0.067 A 
ATOM     33  C   UNL     1     127.871 117.536 136.332  1.00  0.00     0.020 A 
ATOM     34  C   UNL     1     128.339 118.459 138.532  1.00  0.00     0.020 A 
ATOM     35  C   UNL     1     127.573 116.305 136.917  1.00  0.00     0.001 A 
ATOM     36  C   UNL     1     128.039 117.226 139.108  1.00  0.00     0.001 A 
ATOM     37  C   UNL     1     127.659 116.151 138.302  1.00  0.00     0.000 A 
ENDBRANCH  29  32
ENDBRANCH  28  29
ENDBRANCH   4  28
TORSDOF 7
ENDMDL
