MODEL 1
REMARK VINA RESULT:     -13.8      0.000      0.000
REMARK SMILES NC(=O)c1ccc(NC(=O)c2c(C(F)(F)F)ccc(CS(=O)(=O)c3ccccc3)c2F)c(-c2ccccc2)c1
REMARK SMILES IDX 11 1 30 2 31 3 19 4 18 5 17 6 12 7 9 8 8 9 10 11 7 12 4 13
REMARK SMILES IDX 5 14 39 15 6 16 32 17 2 18 1 19 3 22 33 23 34 24 38 25 35 26
REMARK SMILES IDX 37 27 36 28 13 29 14 30 15 31 16 32 20 33 21 34 22 35 23 36
REMARK SMILES IDX 24 37 25 38 29 39 26 40 28 41 27 42
REMARK H PARENT 8 10 1 20 1 21
REMARK Flexibility Score: inf
ROOT
ATOM      1  C   UNL     1     131.140 119.600 132.381  1.00  0.00     0.088 A 
ATOM      2  C   UNL     1     130.301 119.251 133.448  1.00  0.00     0.140 A 
ATOM      3  F   UNL     1     129.612 118.100 133.415  1.00  0.00    -0.206 F 
ATOM      4  C   UNL     1     130.150 120.075 134.569  1.00  0.00     0.004 A 
ATOM      5  C   UNL     1     130.871 121.269 134.628  1.00  0.00     0.008 A 
ATOM      6  C   UNL     1     131.714 121.629 133.574  1.00  0.00     0.014 A 
ATOM      7  C   UNL     1     131.854 120.811 132.432  1.00  0.00     0.071 A 
ENDROOT
BRANCH   1   8
ATOM      8  C   UNL     1     131.287 118.668 131.231  1.00  0.00     0.259 C 
ATOM      9  N   UNL     1     131.776 117.413 131.536  1.00  0.00    -0.321 N 
ATOM     10  H   UNL     1     132.081 117.261 132.493  1.00  0.00     0.170 HD
ATOM     11  O   UNL     1     130.968 119.085 130.126  1.00  0.00    -0.269 OA
BRANCH   9  12
ATOM     12  C   UNL     1     131.972 116.313 130.662  1.00  0.00     0.049 A 
ATOM     13  C   UNL     1     132.314 114.097 128.944  1.00  0.00     0.040 A 
ATOM     14  C   UNL     1     133.260 115.122 128.967  1.00  0.00     0.016 A 
ATOM     15  C   UNL     1     131.202 114.173 129.789  1.00  0.00     0.024 A 
ATOM     16  C   UNL     1     133.085 116.221 129.816  1.00  0.00     0.027 A 
ATOM     17  C   UNL     1     131.007 115.273 130.649  1.00  0.00     0.006 A 
BRANCH  13  18
ATOM     18  C   UNL     1     132.454 112.907 128.064  1.00  0.00     0.248 C 
ATOM     19  N   UNL     1     131.394 112.587 127.260  1.00  0.00    -0.366 N 
ATOM     20  H   UNL     1     131.465 111.706 126.769  1.00  0.00     0.159 HD
ATOM     21  H   UNL     1     130.467 112.955 127.421  1.00  0.00     0.159 HD
ATOM     22  O   UNL     1     133.462 112.213 128.076  1.00  0.00    -0.270 OA
ENDBRANCH  13  18
BRANCH  17  23
ATOM     23  C   UNL     1     129.809 115.282 131.506  1.00  0.00    -0.016 A 
ATOM     24  C   UNL     1     128.632 115.928 131.093  1.00  0.00     0.009 A 
ATOM     25  C   UNL     1     129.821 114.648 132.759  1.00  0.00     0.009 A 
ATOM     26  C   UNL     1     127.505 115.950 131.918  1.00  0.00     0.001 A 
ATOM     27  C   UNL     1     128.689 114.663 133.578  1.00  0.00     0.001 A 
ATOM     28  C   UNL     1     127.533 115.315 133.157  1.00  0.00     0.000 A 
ENDBRANCH  17  23
ENDBRANCH   9  12
ENDBRANCH   1   8
BRANCH   7  29
ATOM     29  C   UNL     1     132.744 121.274 131.301  1.00  0.00     0.417 C 
ATOM     30  F   UNL     1     132.059 121.693 130.203  1.00  0.00    -0.166 F 
ATOM     31  F   UNL     1     133.640 120.336 130.897  1.00  0.00    -0.166 F 
ATOM     32  F   UNL     1     133.505 122.352 131.662  1.00  0.00    -0.166 F 
ENDBRANCH   7  29
BRANCH   4  33
ATOM     33  C   UNL     1     129.185 119.686 135.656  1.00  0.00     0.180 C 
BRANCH  33  34
ATOM     34  S   UNL     1     130.102 118.867 136.959  1.00  0.00     0.182 S 
ATOM     35  O   UNL     1     130.287 119.772 138.077  1.00  0.00    -0.223 OA
ATOM     36  O   UNL     1     131.242 118.195 136.357  1.00  0.00    -0.223 OA
BRANCH  34  37
ATOM     37  C   UNL     1     128.967 117.608 137.498  1.00  0.00     0.067 A 
ATOM     38  C   UNL     1     128.233 117.815 138.671  1.00  0.00     0.020 A 
ATOM     39  C   UNL     1     128.838 116.425 136.768  1.00  0.00     0.020 A 
ATOM     40  C   UNL     1     127.343 116.832 139.102  1.00  0.00     0.001 A 
ATOM     41  C   UNL     1     127.944 115.448 137.208  1.00  0.00     0.001 A 
ATOM     42  C   UNL     1     127.197 115.653 138.369  1.00  0.00     0.000 A 
ENDBRANCH  34  37
ENDBRANCH  33  34
ENDBRANCH   4  33
TORSDOF 8
ENDMDL
MODEL 2
REMARK VINA RESULT:     -13.7      0.709      1.419
REMARK SMILES NC(=O)c1ccc(NC(=O)c2c(C(F)(F)F)ccc(CS(=O)(=O)c3ccccc3)c2F)c(-c2ccccc2)c1
REMARK SMILES IDX 11 1 30 2 31 3 19 4 18 5 17 6 12 7 9 8 8 9 10 11 7 12 4 13
REMARK SMILES IDX 5 14 39 15 6 16 32 17 2 18 1 19 3 22 33 23 34 24 38 25 35 26
REMARK SMILES IDX 37 27 36 28 13 29 14 30 15 31 16 32 20 33 21 34 22 35 23 36
REMARK SMILES IDX 24 37 25 38 29 39 26 40 28 41 27 42
REMARK H PARENT 8 10 1 20 1 21
REMARK Flexibility Score: inf
ROOT
ATOM      1  C   UNL     1     131.051 119.450 132.181  1.00  0.00     0.088 A 
ATOM      2  C   UNL     1     130.095 119.077 133.134  1.00  0.00     0.140 A 
ATOM      3  F   UNL     1     129.418 117.925 132.994  1.00  0.00    -0.206 F 
ATOM      4  C   UNL     1     129.811 119.873 134.249  1.00  0.00     0.004 A 
ATOM      5  C   UNL     1     130.516 121.066 134.419  1.00  0.00     0.008 A 
ATOM      6  C   UNL     1     131.475 121.451 133.479  1.00  0.00     0.014 A 
ATOM      7  C   UNL     1     131.750 120.661 132.343  1.00  0.00     0.071 A 
ENDROOT
BRANCH   1   8
ATOM      8  C   UNL     1     131.334 118.545 131.035  1.00  0.00     0.259 C 
ATOM      9  N   UNL     1     131.834 117.301 131.362  1.00  0.00    -0.321 N 
ATOM     10  H   UNL     1     132.055 117.141 132.341  1.00  0.00     0.170 HD
ATOM     11  O   UNL     1     131.104 118.973 129.911  1.00  0.00    -0.269 OA
BRANCH   9  12
ATOM     12  C   UNL     1     132.146 116.225 130.493  1.00  0.00     0.049 A 
ATOM     13  C   UNL     1     132.721 114.052 128.782  1.00  0.00     0.040 A 
ATOM     14  C   UNL     1     133.577 115.151 128.835  1.00  0.00     0.016 A 
ATOM     15  C   UNL     1     131.582 114.032 129.594  1.00  0.00     0.024 A 
ATOM     16  C   UNL     1     133.287 116.228 129.680  1.00  0.00     0.027 A 
ATOM     17  C   UNL     1     131.272 115.109 130.450  1.00  0.00     0.006 A 
BRANCH  13  18
ATOM     18  C   UNL     1     132.985 112.881 127.905  1.00  0.00     0.248 C 
ATOM     19  N   UNL     1     134.266 112.700 127.462  1.00  0.00    -0.366 N 
ATOM     20  H   UNL     1     134.394 111.975 126.768  1.00  0.00     0.159 HD
ATOM     21  H   UNL     1     134.955 113.438 127.491  1.00  0.00     0.159 HD
ATOM     22  O   UNL     1     132.090 112.121 127.560  1.00  0.00    -0.270 OA
ENDBRANCH  13  18
BRANCH  17  23
ATOM     23  C   UNL     1     130.052 115.015 131.271  1.00  0.00    -0.016 A 
ATOM     24  C   UNL     1     130.072 114.376 132.521  1.00  0.00     0.009 A 
ATOM     25  C   UNL     1     128.841 115.562 130.818  1.00  0.00     0.009 A 
ATOM     26  C   UNL     1     128.910 114.273 133.288  1.00  0.00     0.001 A 
ATOM     27  C   UNL     1     127.681 115.467 131.591  1.00  0.00     0.001 A 
ATOM     28  C   UNL     1     127.716 114.821 132.824  1.00  0.00     0.000 A 
ENDBRANCH  17  23
ENDBRANCH   9  12
ENDBRANCH   1   8
BRANCH   7  29
ATOM     29  C   UNL     1     132.764 121.150 131.333  1.00  0.00     0.417 C 
ATOM     30  F   UNL     1     133.619 120.183 130.906  1.00  0.00    -0.166 F 
ATOM     31  F   UNL     1     133.509 122.196 131.776  1.00  0.00    -0.166 F 
ATOM     32  F   UNL     1     132.163 121.606 130.191  1.00  0.00    -0.166 F 
ENDBRANCH   7  29
BRANCH   4  33
ATOM     33  C   UNL     1     128.727 119.459 135.207  1.00  0.00     0.180 C 
BRANCH  33  34
ATOM     34  S   UNL     1     129.499 118.912 136.729  1.00  0.00     0.182 S 
ATOM     35  O   UNL     1     129.401 119.954 137.734  1.00  0.00    -0.223 OA
ATOM     36  O   UNL     1     130.785 118.324 136.399  1.00  0.00    -0.223 OA
BRANCH  34  37
ATOM     37  C   UNL     1     128.428 117.592 137.251  1.00  0.00     0.067 A 
ATOM     38  C   UNL     1     127.971 116.673 136.301  1.00  0.00     0.020 A 
ATOM     39  C   UNL     1     128.032 117.500 138.587  1.00  0.00     0.020 A 
ATOM     40  C   UNL     1     127.129 115.636 136.702  1.00  0.00     0.001 A 
ATOM     41  C   UNL     1     127.189 116.459 138.979  1.00  0.00     0.001 A 
ATOM     42  C   UNL     1     126.743 115.529 138.039  1.00  0.00     0.000 A 
ENDBRANCH  34  37
ENDBRANCH  33  34
ENDBRANCH   4  33
TORSDOF 8
ENDMDL
MODEL 3
REMARK VINA RESULT:     -12.7      0.916      1.461
REMARK SMILES NC(=O)c1ccc(NC(=O)c2c(C(F)(F)F)ccc(CS(=O)(=O)c3ccccc3)c2F)c(-c2ccccc2)c1
REMARK SMILES IDX 11 1 30 2 31 3 19 4 18 5 17 6 12 7 9 8 8 9 10 11 7 12 4 13
REMARK SMILES IDX 5 14 39 15 6 16 32 17 2 18 1 19 3 22 33 23 34 24 38 25 35 26
REMARK SMILES IDX 37 27 36 28 13 29 14 30 15 31 16 32 20 33 21 34 22 35 23 36
REMARK SMILES IDX 24 37 25 38 29 39 26 40 28 41 27 42
REMARK H PARENT 8 10 1 20 1 21
REMARK Flexibility Score: inf
ROOT
ATOM      1  C   UNL     1     131.089 119.164 132.137  1.00  0.00     0.088 A 
ATOM      2  C   UNL     1     130.221 118.622 133.093  1.00  0.00     0.140 A 
ATOM      3  F   UNL     1     129.718 117.389 132.926  1.00  0.00    -0.206 F 
ATOM      4  C   UNL     1     129.848 119.332 134.240  1.00  0.00     0.004 A 
ATOM      5  C   UNL     1     130.373 120.611 134.439  1.00  0.00     0.008 A 
ATOM      6  C   UNL     1     131.243 121.164 133.496  1.00  0.00     0.014 A 
ATOM      7  C   UNL     1     131.605 120.459 132.328  1.00  0.00     0.071 A 
ENDROOT
BRANCH   1   8
ATOM      8  C   UNL     1     131.475 118.348 130.955  1.00  0.00     0.259 C 
ATOM      9  N   UNL     1     131.923 117.070 131.228  1.00  0.00    -0.321 N 
ATOM     10  H   UNL     1     132.040 116.828 132.208  1.00  0.00     0.170 HD
ATOM     11  O   UNL     1     131.368 118.869 129.852  1.00  0.00    -0.269 OA
BRANCH   9  12
ATOM     12  C   UNL     1     132.308 116.061 130.310  1.00  0.00     0.049 A 
ATOM     13  C   UNL     1     133.030 114.017 128.499  1.00  0.00     0.040 A 
ATOM     14  C   UNL     1     133.814 115.165 128.613  1.00  0.00     0.016 A 
ATOM     15  C   UNL     1     131.892 113.883 129.300  1.00  0.00     0.024 A 
ATOM     16  C   UNL     1     133.451 116.178 129.508  1.00  0.00     0.027 A 
ATOM     17  C   UNL     1     131.508 114.894 130.205  1.00  0.00     0.006 A 
BRANCH  13  18
ATOM     18  C   UNL     1     133.374 112.910 127.568  1.00  0.00     0.248 C 
ATOM     19  N   UNL     1     132.364 112.072 127.183  1.00  0.00    -0.366 N 
ATOM     20  H   UNL     1     132.645 111.257 126.655  1.00  0.00     0.159 HD
ATOM     21  H   UNL     1     131.488 112.019 127.684  1.00  0.00     0.159 HD
ATOM     22  O   UNL     1     134.520 112.727 127.181  1.00  0.00    -0.270 OA
ENDBRANCH  13  18
BRANCH  17  23
ATOM     23  C   UNL     1     130.293 114.682 131.011  1.00  0.00    -0.016 A 
ATOM     24  C   UNL     1     130.355 114.018 132.247  1.00  0.00     0.009 A 
ATOM     25  C   UNL     1     129.045 115.138 130.557  1.00  0.00     0.009 A 
ATOM     26  C   UNL     1     129.198 113.802 132.998  1.00  0.00     0.001 A 
ATOM     27  C   UNL     1     127.890 114.930 131.315  1.00  0.00     0.001 A 
ATOM     28  C   UNL     1     127.967 114.261 132.534  1.00  0.00     0.000 A 
ENDBRANCH  17  23
ENDBRANCH   9  12
ENDBRANCH   1   8
BRANCH   7  29
ATOM     29  C   UNL     1     132.512 121.125 131.318  1.00  0.00     0.417 C 
ATOM     30  F   UNL     1     131.876 121.503 130.177  1.00  0.00    -0.166 F 
ATOM     31  F   UNL     1     133.580 120.365 130.963  1.00  0.00    -0.166 F 
ATOM     32  F   UNL     1     133.054 122.283 131.808  1.00  0.00    -0.166 F 
ENDBRANCH   7  29
BRANCH   4  33
ATOM     33  C   UNL     1     128.860 118.732 135.203  1.00  0.00     0.180 C 
BRANCH  33  34
ATOM     34  S   UNL     1     129.704 117.485 136.173  1.00  0.00     0.182 S 
ATOM     35  O   UNL     1     130.777 118.095 136.935  1.00  0.00    -0.223 OA
ATOM     36  O   UNL     1     129.966 116.342 135.315  1.00  0.00    -0.223 OA
BRANCH  34  37
ATOM     37  C   UNL     1     128.457 116.997 137.343  1.00  0.00     0.067 A 
ATOM     38  C   UNL     1     127.535 116.010 136.979  1.00  0.00     0.020 A 
ATOM     39  C   UNL     1     128.391 117.615 138.594  1.00  0.00     0.020 A 
ATOM     40  C   UNL     1     126.552 115.623 137.889  1.00  0.00     0.001 A 
ATOM     41  C   UNL     1     127.404 117.221 139.498  1.00  0.00     0.001 A 
ATOM     42  C   UNL     1     126.490 116.226 139.147  1.00  0.00     0.000 A 
ENDBRANCH  34  37
ENDBRANCH  33  34
ENDBRANCH   4  33
TORSDOF 8
ENDMDL
MODEL 4
REMARK VINA RESULT:     -12.7      0.908      1.074
REMARK SMILES NC(=O)c1ccc(NC(=O)c2c(C(F)(F)F)ccc(CS(=O)(=O)c3ccccc3)c2F)c(-c2ccccc2)c1
REMARK SMILES IDX 11 1 30 2 31 3 19 4 18 5 17 6 12 7 9 8 8 9 10 11 7 12 4 13
REMARK SMILES IDX 5 14 39 15 6 16 32 17 2 18 1 19 3 22 33 23 34 24 38 25 35 26
REMARK SMILES IDX 37 27 36 28 13 29 14 30 15 31 16 32 20 33 21 34 22 35 23 36
REMARK SMILES IDX 24 37 25 38 29 39 26 40 28 41 27 42
REMARK H PARENT 8 10 1 20 1 21
REMARK Flexibility Score: inf
ROOT
ATOM      1  C   UNL     1     131.147 119.164 132.122  1.00  0.00     0.088 A 
ATOM      2  C   UNL     1     130.284 118.641 133.092  1.00  0.00     0.140 A 
ATOM      3  F   UNL     1     129.756 117.416 132.935  1.00  0.00    -0.206 F 
ATOM      4  C   UNL     1     129.940 119.360 134.243  1.00  0.00     0.004 A 
ATOM      5  C   UNL     1     130.491 120.629 134.431  1.00  0.00     0.008 A 
ATOM      6  C   UNL     1     131.357 121.164 133.475  1.00  0.00     0.014 A 
ATOM      7  C   UNL     1     131.690 120.450 132.303  1.00  0.00     0.071 A 
ENDROOT
BRANCH   1   8
ATOM      8  C   UNL     1     131.503 118.339 130.937  1.00  0.00     0.259 C 
ATOM      9  N   UNL     1     131.984 117.074 131.210  1.00  0.00    -0.321 N 
ATOM     10  H   UNL     1     132.143 116.847 132.187  1.00  0.00     0.170 HD
ATOM     11  O   UNL     1     131.344 118.843 129.833  1.00  0.00    -0.269 OA
BRANCH   9  12
ATOM     12  C   UNL     1     132.351 116.059 130.290  1.00  0.00     0.049 A 
ATOM     13  C   UNL     1     133.037 114.004 128.477  1.00  0.00     0.040 A 
ATOM     14  C   UNL     1     133.837 115.141 128.587  1.00  0.00     0.016 A 
ATOM     15  C   UNL     1     131.900 113.886 129.283  1.00  0.00     0.024 A 
ATOM     16  C   UNL     1     133.492 116.160 129.483  1.00  0.00     0.027 A 
ATOM     17  C   UNL     1     131.534 114.903 130.189  1.00  0.00     0.006 A 
BRANCH  13  18
ATOM     18  C   UNL     1     133.362 112.892 127.546  1.00  0.00     0.248 C 
ATOM     19  N   UNL     1     132.344 112.050 127.189  1.00  0.00    -0.366 N 
ATOM     20  H   UNL     1     132.616 111.232 126.659  1.00  0.00     0.159 HD
ATOM     21  H   UNL     1     131.481 111.998 127.710  1.00  0.00     0.159 HD
ATOM     22  O   UNL     1     134.499 112.709 127.134  1.00  0.00    -0.270 OA
ENDBRANCH  13  18
BRANCH  17  23
ATOM     23  C   UNL     1     130.320 114.708 131.001  1.00  0.00    -0.016 A 
ATOM     24  C   UNL     1     129.077 115.196 130.567  1.00  0.00     0.009 A 
ATOM     25  C   UNL     1     130.383 114.031 132.229  1.00  0.00     0.009 A 
ATOM     26  C   UNL     1     127.933 115.026 131.349  1.00  0.00     0.001 A 
ATOM     27  C   UNL     1     129.235 113.852 133.006  1.00  0.00     0.001 A 
ATOM     28  C   UNL     1     128.011 114.351 132.565  1.00  0.00     0.000 A 
ENDBRANCH  17  23
ENDBRANCH   9  12
ENDBRANCH   1   8
BRANCH   7  29
ATOM     29  C   UNL     1     132.595 121.098 131.279  1.00  0.00     0.417 C 
ATOM     30  F   UNL     1     131.948 121.490 130.149  1.00  0.00    -0.166 F 
ATOM     31  F   UNL     1     133.640 120.316 130.907  1.00  0.00    -0.166 F 
ATOM     32  F   UNL     1     133.168 122.243 131.762  1.00  0.00    -0.166 F 
ENDBRANCH   7  29
BRANCH   4  33
ATOM     33  C   UNL     1     128.955 118.779 135.220  1.00  0.00     0.180 C 
BRANCH  33  34
ATOM     34  S   UNL     1     129.799 117.544 136.206  1.00  0.00     0.182 S 
ATOM     35  O   UNL     1     131.004 118.111 136.782  1.00  0.00    -0.223 OA
ATOM     36  O   UNL     1     129.858 116.313 135.438  1.00  0.00    -0.223 OA
BRANCH  34  37
ATOM     37  C   UNL     1     128.664 117.280 137.549  1.00  0.00     0.067 A 
ATOM     38  C   UNL     1     128.852 117.983 138.744  1.00  0.00     0.020 A 
ATOM     39  C   UNL     1     127.620 116.363 137.412  1.00  0.00     0.020 A 
ATOM     40  C   UNL     1     127.968 117.779 139.803  1.00  0.00     0.001 A 
ATOM     41  C   UNL     1     126.741 116.166 138.478  1.00  0.00     0.001 A 
ATOM     42  C   UNL     1     126.913 116.876 139.667  1.00  0.00     0.000 A 
ENDBRANCH  34  37
ENDBRANCH  33  34
ENDBRANCH   4  33
TORSDOF 8
ENDMDL
MODEL 5
REMARK VINA RESULT:     -12.4      0.955      1.470
REMARK SMILES NC(=O)c1ccc(NC(=O)c2c(C(F)(F)F)ccc(CS(=O)(=O)c3ccccc3)c2F)c(-c2ccccc2)c1
REMARK SMILES IDX 11 1 30 2 31 3 19 4 18 5 17 6 12 7 9 8 8 9 10 11 7 12 4 13
REMARK SMILES IDX 5 14 39 15 6 16 32 17 2 18 1 19 3 22 33 23 34 24 38 25 35 26
REMARK SMILES IDX 37 27 36 28 13 29 14 30 15 31 16 32 20 33 21 34 22 35 23 36
REMARK SMILES IDX 24 37 25 38 29 39 26 40 28 41 27 42
REMARK H PARENT 8 10 1 20 1 21
REMARK Flexibility Score: inf
ROOT
ATOM      1  C   UNL     1     131.125 119.179 132.158  1.00  0.00     0.088 A 
ATOM      2  C   UNL     1     130.273 118.687 133.155  1.00  0.00     0.140 A 
ATOM      3  F   UNL     1     129.739 117.461 133.040  1.00  0.00    -0.206 F 
ATOM      4  C   UNL     1     129.949 119.440 134.289  1.00  0.00     0.004 A 
ATOM      5  C   UNL     1     130.507 120.712 134.433  1.00  0.00     0.008 A 
ATOM      6  C   UNL     1     131.362 121.216 133.449  1.00  0.00     0.014 A 
ATOM      7  C   UNL     1     131.674 120.468 132.294  1.00  0.00     0.071 A 
ENDROOT
BRANCH   1   8
ATOM      8  C   UNL     1     131.460 118.319 130.991  1.00  0.00     0.259 C 
ATOM      9  N   UNL     1     131.879 117.038 131.292  1.00  0.00    -0.321 N 
ATOM     10  H   UNL     1     132.014 116.821 132.275  1.00  0.00     0.170 HD
ATOM     11  O   UNL     1     131.339 118.811 129.877  1.00  0.00    -0.269 OA
BRANCH   9  12
ATOM     12  C   UNL     1     132.214 115.992 130.394  1.00  0.00     0.049 A 
ATOM     13  C   UNL     1     132.833 113.878 128.627  1.00  0.00     0.040 A 
ATOM     14  C   UNL     1     133.667 114.993 128.709  1.00  0.00     0.016 A 
ATOM     15  C   UNL     1     131.696 113.812 129.437  1.00  0.00     0.024 A 
ATOM     16  C   UNL     1     133.354 116.041 129.583  1.00  0.00     0.027 A 
ATOM     17  C   UNL     1     131.363 114.859 130.321  1.00  0.00     0.006 A 
BRANCH  13  18
ATOM     18  C   UNL     1     133.122 112.737 127.720  1.00  0.00     0.248 C 
ATOM     19  N   UNL     1     134.395 112.623 127.233  1.00  0.00    -0.366 N 
ATOM     20  H   UNL     1     134.533 111.917 126.521  1.00  0.00     0.159 HD
ATOM     21  H   UNL     1     135.050 113.391 127.254  1.00  0.00     0.159 HD
ATOM     22  O   UNL     1     132.252 111.942 127.388  1.00  0.00    -0.270 OA
ENDBRANCH  13  18
BRANCH  17  23
ATOM     23  C   UNL     1     130.146 114.719 131.140  1.00  0.00    -0.016 A 
ATOM     24  C   UNL     1     130.182 114.059 132.378  1.00  0.00     0.009 A 
ATOM     25  C   UNL     1     128.920 115.239 130.694  1.00  0.00     0.009 A 
ATOM     26  C   UNL     1     129.022 113.911 133.142  1.00  0.00     0.001 A 
ATOM     27  C   UNL     1     127.762 115.100 131.464  1.00  0.00     0.001 A 
ATOM     28  C   UNL     1     127.815 114.434 132.686  1.00  0.00     0.000 A 
ENDBRANCH  17  23
ENDBRANCH   9  12
ENDBRANCH   1   8
BRANCH   7  29
ATOM     29  C   UNL     1     132.567 121.082 131.239  1.00  0.00     0.417 C 
ATOM     30  F   UNL     1     133.215 122.202 131.656  1.00  0.00    -0.166 F 
ATOM     31  F   UNL     1     131.915 121.386 130.087  1.00  0.00    -0.166 F 
ATOM     32  F   UNL     1     133.567 120.227 130.860  1.00  0.00    -0.166 F 
ENDBRANCH   7  29
BRANCH   4  33
ATOM     33  C   UNL     1     128.976 118.892 135.297  1.00  0.00     0.180 C 
BRANCH  33  34
ATOM     34  S   UNL     1     129.802 117.611 136.239  1.00  0.00     0.182 S 
ATOM     35  O   UNL     1     131.027 118.134 136.815  1.00  0.00    -0.223 OA
ATOM     36  O   UNL     1     129.822 116.400 135.437  1.00  0.00    -0.223 OA
BRANCH  34  37
ATOM     37  C   UNL     1     128.676 117.338 137.588  1.00  0.00     0.067 A 
ATOM     38  C   UNL     1     128.851 118.058 138.774  1.00  0.00     0.020 A 
ATOM     39  C   UNL     1     127.652 116.396 137.465  1.00  0.00     0.020 A 
ATOM     40  C   UNL     1     127.974 117.848 139.838  1.00  0.00     0.001 A 
ATOM     41  C   UNL     1     126.780 116.193 138.534  1.00  0.00     0.001 A 
ATOM     42  C   UNL     1     126.939 116.920 139.715  1.00  0.00     0.000 A 
ENDBRANCH  34  37
ENDBRANCH  33  34
ENDBRANCH   4  33
TORSDOF 8
ENDMDL
MODEL 6
REMARK VINA RESULT:     -11.9      1.018      1.325
REMARK SMILES NC(=O)c1ccc(NC(=O)c2c(C(F)(F)F)ccc(CS(=O)(=O)c3ccccc3)c2F)c(-c2ccccc2)c1
REMARK SMILES IDX 11 1 30 2 31 3 19 4 18 5 17 6 12 7 9 8 8 9 10 11 7 12 4 13
REMARK SMILES IDX 5 14 39 15 6 16 32 17 2 18 1 19 3 22 33 23 34 24 38 25 35 26
REMARK SMILES IDX 37 27 36 28 13 29 14 30 15 31 16 32 20 33 21 34 22 35 23 36
REMARK SMILES IDX 24 37 25 38 29 39 26 40 28 41 27 42
REMARK H PARENT 8 10 1 20 1 21
REMARK Flexibility Score: inf
ROOT
ATOM      1  C   UNL     1     131.058 119.782 132.266  1.00  0.00     0.088 A 
ATOM      2  C   UNL     1     130.038 119.437 133.162  1.00  0.00     0.140 A 
ATOM      3  F   UNL     1     129.312 118.326 132.961  1.00  0.00    -0.206 F 
ATOM      4  C   UNL     1     129.740 120.223 134.281  1.00  0.00     0.004 A 
ATOM      5  C   UNL     1     130.494 121.374 134.514  1.00  0.00     0.008 A 
ATOM      6  C   UNL     1     131.517 121.730 133.632  1.00  0.00     0.014 A 
ATOM      7  C   UNL     1     131.808 120.951 132.491  1.00  0.00     0.071 A 
ENDROOT
BRANCH   1   8
ATOM      8  C   UNL     1     131.352 118.889 131.113  1.00  0.00     0.259 C 
ATOM      9  N   UNL     1     131.851 117.642 131.433  1.00  0.00    -0.321 N 
ATOM     10  H   UNL     1     132.062 117.472 132.412  1.00  0.00     0.170 HD
ATOM     11  O   UNL     1     131.133 119.328 129.992  1.00  0.00    -0.269 OA
BRANCH   9  12
ATOM     12  C   UNL     1     132.172 116.575 130.556  1.00  0.00     0.049 A 
ATOM     13  C   UNL     1     132.775 114.414 128.840  1.00  0.00     0.040 A 
ATOM     14  C   UNL     1     133.406 115.646 128.669  1.00  0.00     0.016 A 
ATOM     15  C   UNL     1     131.851 114.257 129.877  1.00  0.00     0.024 A 
ATOM     16  C   UNL     1     133.101 116.716 129.518  1.00  0.00     0.027 A 
ATOM     17  C   UNL     1     131.528 115.324 130.741  1.00  0.00     0.006 A 
BRANCH  13  18
ATOM     18  C   UNL     1     133.066 113.245 127.969  1.00  0.00     0.248 C 
ATOM     19  N   UNL     1     133.440 113.497 126.677  1.00  0.00    -0.366 N 
ATOM     20  H   UNL     1     133.508 112.688 126.073  1.00  0.00     0.159 HD
ATOM     21  H   UNL     1     133.284 114.392 126.237  1.00  0.00     0.159 HD
ATOM     22  O   UNL     1     132.945 112.096 128.373  1.00  0.00    -0.270 OA
ENDBRANCH  13  18
BRANCH  17  23
ATOM     23  C   UNL     1     130.541 115.082 131.808  1.00  0.00    -0.016 A 
ATOM     24  C   UNL     1     129.736 113.931 131.798  1.00  0.00     0.009 A 
ATOM     25  C   UNL     1     130.383 116.001 132.857  1.00  0.00     0.009 A 
ATOM     26  C   UNL     1     128.789 113.716 132.801  1.00  0.00     0.001 A 
ATOM     27  C   UNL     1     129.442 115.779 133.866  1.00  0.00     0.001 A 
ATOM     28  C   UNL     1     128.645 114.637 133.836  1.00  0.00     0.000 A 
ENDBRANCH  17  23
ENDBRANCH   9  12
ENDBRANCH   1   8
BRANCH   7  29
ATOM     29  C   UNL     1     132.895 121.410 131.545  1.00  0.00     0.417 C 
ATOM     30  F   UNL     1     133.802 122.245 132.118  1.00  0.00    -0.166 F 
ATOM     31  F   UNL     1     132.421 122.018 130.427  1.00  0.00    -0.166 F 
ATOM     32  F   UNL     1     133.641 120.359 131.083  1.00  0.00    -0.166 F 
ENDBRANCH   7  29
BRANCH   4  33
ATOM     33  C   UNL     1     128.590 119.844 135.174  1.00  0.00     0.180 C 
BRANCH  33  34
ATOM     34  S   UNL     1     129.248 119.386 136.777  1.00  0.00     0.182 S 
ATOM     35  O   UNL     1     128.751 120.294 137.793  1.00  0.00    -0.223 OA
ATOM     36  O   UNL     1     130.674 119.151 136.631  1.00  0.00    -0.223 OA
BRANCH  34  37
ATOM     37  C   UNL     1     128.477 117.811 137.074  1.00  0.00     0.067 A 
ATOM     38  C   UNL     1     127.296 117.495 136.394  1.00  0.00     0.020 A 
ATOM     39  C   UNL     1     129.035 116.922 137.995  1.00  0.00     0.020 A 
ATOM     40  C   UNL     1     126.683 116.264 136.623  1.00  0.00     0.001 A 
ATOM     41  C   UNL     1     128.415 115.692 138.218  1.00  0.00     0.001 A 
ATOM     42  C   UNL     1     127.245 115.364 137.531  1.00  0.00     0.000 A 
ENDBRANCH  34  37
ENDBRANCH  33  34
ENDBRANCH   4  33
TORSDOF 8
ENDMDL
MODEL 7
REMARK VINA RESULT:     -11.7      0.991      1.358
REMARK SMILES NC(=O)c1ccc(NC(=O)c2c(C(F)(F)F)ccc(CS(=O)(=O)c3ccccc3)c2F)c(-c2ccccc2)c1
REMARK SMILES IDX 11 1 30 2 31 3 19 4 18 5 17 6 12 7 9 8 8 9 10 11 7 12 4 13
REMARK SMILES IDX 5 14 39 15 6 16 32 17 2 18 1 19 3 22 33 23 34 24 38 25 35 26
REMARK SMILES IDX 37 27 36 28 13 29 14 30 15 31 16 32 20 33 21 34 22 35 23 36
REMARK SMILES IDX 24 37 25 38 29 39 26 40 28 41 27 42
REMARK H PARENT 8 10 1 20 1 21
REMARK Flexibility Score: inf
ROOT
ATOM      1  C   UNL     1     131.386 119.437 132.556  1.00  0.00     0.088 A 
ATOM      2  C   UNL     1     130.926 118.977 133.796  1.00  0.00     0.140 A 
ATOM      3  F   UNL     1     130.449 117.727 133.917  1.00  0.00    -0.206 F 
ATOM      4  C   UNL     1     130.944 119.785 134.939  1.00  0.00     0.004 A 
ATOM      5  C   UNL     1     131.451 121.082 134.835  1.00  0.00     0.008 A 
ATOM      6  C   UNL     1     131.916 121.555 133.606  1.00  0.00     0.014 A 
ATOM      7  C   UNL     1     131.881 120.750 132.448  1.00  0.00     0.071 A 
ENDROOT
BRANCH   1   8
ATOM      8  C   UNL     1     131.374 118.520 131.385  1.00  0.00     0.259 C 
ATOM      9  N   UNL     1     131.985 117.297 131.575  1.00  0.00    -0.321 N 
ATOM     10  H   UNL     1     132.470 117.161 132.457  1.00  0.00     0.170 HD
ATOM     11  O   UNL     1     130.832 118.921 130.363  1.00  0.00    -0.269 OA
BRANCH   9  12
ATOM     12  C   UNL     1     132.083 116.215 130.663  1.00  0.00     0.049 A 
ATOM     13  C   UNL     1     132.227 114.036 128.871  1.00  0.00     0.040 A 
ATOM     14  C   UNL     1     133.234 115.001 128.889  1.00  0.00     0.016 A 
ATOM     15  C   UNL     1     131.153 114.152 129.760  1.00  0.00     0.024 A 
ATOM     16  C   UNL     1     133.157 116.082 129.774  1.00  0.00     0.027 A 
ATOM     17  C   UNL     1     131.056 115.235 130.657  1.00  0.00     0.006 A 
BRANCH  13  18
ATOM     18  C   UNL     1     132.263 112.867 127.954  1.00  0.00     0.248 C 
ATOM     19  N   UNL     1     131.131 112.593 127.236  1.00  0.00    -0.366 N 
ATOM     20  H   UNL     1     131.138 111.723 126.719  1.00  0.00     0.159 HD
ATOM     21  H   UNL     1     130.231 112.976 127.484  1.00  0.00     0.159 HD
ATOM     22  O   UNL     1     133.251 112.151 127.862  1.00  0.00    -0.270 OA
ENDBRANCH  13  18
BRANCH  17  23
ATOM     23  C   UNL     1     129.892 115.290 131.559  1.00  0.00    -0.016 A 
ATOM     24  C   UNL     1     129.906 114.623 132.795  1.00  0.00     0.009 A 
ATOM     25  C   UNL     1     128.741 116.009 131.199  1.00  0.00     0.009 A 
ATOM     26  C   UNL     1     128.793 114.662 133.638  1.00  0.00     0.001 A 
ATOM     27  C   UNL     1     127.633 116.055 132.048  1.00  0.00     0.001 A 
ATOM     28  C   UNL     1     127.660 115.380 133.266  1.00  0.00     0.000 A 
ENDBRANCH  17  23
ENDBRANCH   9  12
ENDBRANCH   1   8
BRANCH   7  29
ATOM     29  C   UNL     1     132.354 121.331 131.134  1.00  0.00     0.417 C 
ATOM     30  F   UNL     1     131.376 121.420 130.193  1.00  0.00    -0.166 F 
ATOM     31  F   UNL     1     133.395 120.654 130.585  1.00  0.00    -0.166 F 
ATOM     32  F   UNL     1     132.808 122.613 131.280  1.00  0.00    -0.166 F 
ENDBRANCH   7  29
BRANCH   4  33
ATOM     33  C   UNL     1     130.376 119.264 136.231  1.00  0.00     0.180 C 
BRANCH  33  34
ATOM     34  S   UNL     1     128.639 119.696 136.297  1.00  0.00     0.182 S 
ATOM     35  O   UNL     1     128.082 119.709 134.958  1.00  0.00    -0.223 OA
ATOM     36  O   UNL     1     128.491 120.849 137.169  1.00  0.00    -0.223 OA
BRANCH  34  37
ATOM     37  C   UNL     1     127.926 118.299 137.137  1.00  0.00     0.067 A 
ATOM     38  C   UNL     1     128.110 118.172 138.518  1.00  0.00     0.020 A 
ATOM     39  C   UNL     1     127.219 117.336 136.415  1.00  0.00     0.020 A 
ATOM     40  C   UNL     1     127.557 117.078 139.183  1.00  0.00     0.001 A 
ATOM     41  C   UNL     1     126.669 116.246 137.089  1.00  0.00     0.001 A 
ATOM     42  C   UNL     1     126.835 116.120 138.469  1.00  0.00     0.000 A 
ENDBRANCH  34  37
ENDBRANCH  33  34
ENDBRANCH   4  33
TORSDOF 8
ENDMDL
MODEL 8
REMARK VINA RESULT:     -11.6      0.990      1.418
REMARK SMILES NC(=O)c1ccc(NC(=O)c2c(C(F)(F)F)ccc(CS(=O)(=O)c3ccccc3)c2F)c(-c2ccccc2)c1
REMARK SMILES IDX 11 1 30 2 31 3 19 4 18 5 17 6 12 7 9 8 8 9 10 11 7 12 4 13
REMARK SMILES IDX 5 14 39 15 6 16 32 17 2 18 1 19 3 22 33 23 34 24 38 25 35 26
REMARK SMILES IDX 37 27 36 28 13 29 14 30 15 31 16 32 20 33 21 34 22 35 23 36
REMARK SMILES IDX 24 37 25 38 29 39 26 40 28 41 27 42
REMARK H PARENT 8 10 1 20 1 21
REMARK Flexibility Score: inf
ROOT
ATOM      1  C   UNL     1     131.377 119.445 132.561  1.00  0.00     0.088 A 
ATOM      2  C   UNL     1     130.923 118.982 133.802  1.00  0.00     0.140 A 
ATOM      3  F   UNL     1     130.451 117.731 133.924  1.00  0.00    -0.206 F 
ATOM      4  C   UNL     1     130.941 119.790 134.945  1.00  0.00     0.004 A 
ATOM      5  C   UNL     1     131.442 121.089 134.841  1.00  0.00     0.008 A 
ATOM      6  C   UNL     1     131.902 121.564 133.611  1.00  0.00     0.014 A 
ATOM      7  C   UNL     1     131.867 120.760 132.452  1.00  0.00     0.071 A 
ENDROOT
BRANCH   1   8
ATOM      8  C   UNL     1     131.365 118.528 131.389  1.00  0.00     0.259 C 
ATOM      9  N   UNL     1     131.980 117.307 131.578  1.00  0.00    -0.321 N 
ATOM     10  H   UNL     1     132.467 117.172 132.459  1.00  0.00     0.170 HD
ATOM     11  O   UNL     1     130.821 118.928 130.368  1.00  0.00    -0.269 OA
BRANCH   9  12
ATOM     12  C   UNL     1     132.079 116.225 130.665  1.00  0.00     0.049 A 
ATOM     13  C   UNL     1     132.225 114.047 128.873  1.00  0.00     0.040 A 
ATOM     14  C   UNL     1     133.229 115.016 128.887  1.00  0.00     0.016 A 
ATOM     15  C   UNL     1     131.153 114.159 129.764  1.00  0.00     0.024 A 
ATOM     16  C   UNL     1     133.151 116.096 129.773  1.00  0.00     0.027 A 
ATOM     17  C   UNL     1     131.055 115.242 130.662  1.00  0.00     0.006 A 
BRANCH  13  18
ATOM     18  C   UNL     1     132.262 112.879 127.955  1.00  0.00     0.248 C 
ATOM     19  N   UNL     1     131.134 112.609 127.230  1.00  0.00    -0.366 N 
ATOM     20  H   UNL     1     131.141 111.739 126.712  1.00  0.00     0.159 HD
ATOM     21  H   UNL     1     130.233 112.995 127.473  1.00  0.00     0.159 HD
ATOM     22  O   UNL     1     133.249 112.160 127.868  1.00  0.00    -0.270 OA
ENDBRANCH  13  18
BRANCH  17  23
ATOM     23  C   UNL     1     129.894 115.293 131.567  1.00  0.00    -0.016 A 
ATOM     24  C   UNL     1     128.740 116.014 131.220  1.00  0.00     0.009 A 
ATOM     25  C   UNL     1     129.919 114.622 132.801  1.00  0.00     0.009 A 
ATOM     26  C   UNL     1     127.649 116.075 132.089  1.00  0.00     0.001 A 
ATOM     27  C   UNL     1     128.823 114.676 133.665  1.00  0.00     0.001 A 
ATOM     28  C   UNL     1     127.690 115.403 133.309  1.00  0.00     0.000 A 
ENDBRANCH  17  23
ENDBRANCH   9  12
ENDBRANCH   1   8
BRANCH   7  29
ATOM     29  C   UNL     1     132.333 121.343 131.137  1.00  0.00     0.417 C 
ATOM     30  F   UNL     1     132.785 122.621 131.236  1.00  0.00    -0.166 F 
ATOM     31  F   UNL     1     131.387 121.312 130.163  1.00  0.00    -0.166 F 
ATOM     32  F   UNL     1     133.391 120.644 130.619  1.00  0.00    -0.166 F 
ENDBRANCH   7  29
BRANCH   4  33
ATOM     33  C   UNL     1     130.379 119.267 136.239  1.00  0.00     0.180 C 
BRANCH  33  34
ATOM     34  S   UNL     1     128.637 119.681 136.305  1.00  0.00     0.182 S 
ATOM     35  O   UNL     1     128.081 119.691 134.965  1.00  0.00    -0.223 OA
ATOM     36  O   UNL     1     128.478 120.831 137.179  1.00  0.00    -0.223 OA
BRANCH  34  37
ATOM     37  C   UNL     1     127.938 118.276 137.141  1.00  0.00     0.067 A 
ATOM     38  C   UNL     1     127.210 117.339 136.400  1.00  0.00     0.020 A 
ATOM     39  C   UNL     1     128.096 118.133 138.521  1.00  0.00     0.020 A 
ATOM     40  C   UNL     1     126.656 116.236 137.048  1.00  0.00     0.001 A 
ATOM     41  C   UNL     1     127.538 117.026 139.160  1.00  0.00     0.001 A 
ATOM     42  C   UNL     1     126.824 116.079 138.425  1.00  0.00     0.000 A 
ENDBRANCH  34  37
ENDBRANCH  33  34
ENDBRANCH   4  33
TORSDOF 8
ENDMDL
MODEL 9
REMARK VINA RESULT:     -11.5      3.043      7.095
REMARK SMILES NC(=O)c1ccc(NC(=O)c2c(C(F)(F)F)ccc(CS(=O)(=O)c3ccccc3)c2F)c(-c2ccccc2)c1
REMARK SMILES IDX 11 1 30 2 31 3 19 4 18 5 17 6 12 7 9 8 8 9 10 11 7 12 4 13
REMARK SMILES IDX 5 14 39 15 6 16 32 17 2 18 1 19 3 22 33 23 34 24 38 25 35 26
REMARK SMILES IDX 37 27 36 28 13 29 14 30 15 31 16 32 20 33 21 34 22 35 23 36
REMARK SMILES IDX 24 37 25 38 29 39 26 40 28 41 27 42
REMARK H PARENT 8 10 1 20 1 21
REMARK Flexibility Score: inf
ROOT
ATOM      1  C   UNL     1     130.981 119.968 132.520  1.00  0.00     0.088 A 
ATOM      2  C   UNL     1     131.354 119.326 131.332  1.00  0.00     0.140 A 
ATOM      3  F   UNL     1     130.721 118.207 130.944  1.00  0.00    -0.206 F 
ATOM      4  C   UNL     1     132.382 119.815 130.518  1.00  0.00     0.004 A 
ATOM      5  C   UNL     1     133.041 120.985 130.899  1.00  0.00     0.008 A 
ATOM      6  C   UNL     1     132.678 121.639 132.079  1.00  0.00     0.014 A 
ATOM      7  C   UNL     1     131.656 121.139 132.912  1.00  0.00     0.071 A 
ENDROOT
BRANCH   1   8
ATOM      8  C   UNL     1     129.857 119.420 133.326  1.00  0.00     0.259 C 
ATOM      9  N   UNL     1     130.196 118.444 134.242  1.00  0.00    -0.321 N 
ATOM     10  H   UNL     1     131.157 118.116 134.224  1.00  0.00     0.170 HD
ATOM     11  O   UNL     1     128.740 119.873 133.113  1.00  0.00    -0.269 OA
BRANCH   9  12
ATOM     12  C   UNL     1     129.353 117.783 135.171  1.00  0.00     0.049 A 
ATOM     13  C   UNL     1     127.658 116.428 136.979  1.00  0.00     0.040 A 
ATOM     14  C   UNL     1     128.315 117.595 137.370  1.00  0.00     0.016 A 
ATOM     15  C   UNL     1     127.837 115.945 135.679  1.00  0.00     0.024 A 
ATOM     16  C   UNL     1     129.158 118.261 136.473  1.00  0.00     0.027 A 
ATOM     17  C   UNL     1     128.684 116.600 134.763  1.00  0.00     0.006 A 
BRANCH  13  18
ATOM     18  C   UNL     1     126.749 115.685 137.891  1.00  0.00     0.248 C 
ATOM     19  N   UNL     1     126.758 116.034 139.214  1.00  0.00    -0.366 N 
ATOM     20  H   UNL     1     126.229 115.432 139.832  1.00  0.00     0.159 HD
ATOM     21  H   UNL     1     127.508 116.572 139.623  1.00  0.00     0.159 HD
ATOM     22  O   UNL     1     126.040 114.772 137.490  1.00  0.00    -0.270 OA
ENDBRANCH  13  18
BRANCH  17  23
ATOM     23  C   UNL     1     128.824 116.027 133.412  1.00  0.00    -0.016 A 
ATOM     24  C   UNL     1     127.973 116.424 132.369  1.00  0.00     0.009 A 
ATOM     25  C   UNL     1     129.813 115.067 133.142  1.00  0.00     0.009 A 
ATOM     26  C   UNL     1     128.098 115.864 131.095  1.00  0.00     0.001 A 
ATOM     27  C   UNL     1     129.943 114.515 131.865  1.00  0.00     0.001 A 
ATOM     28  C   UNL     1     129.084 114.913 130.844  1.00  0.00     0.000 A 
ENDBRANCH  17  23
ENDBRANCH   9  12
ENDBRANCH   1   8
BRANCH   7  29
ATOM     29  C   UNL     1     131.337 121.862 134.202  1.00  0.00     0.417 C 
ATOM     30  F   UNL     1     131.522 121.101 135.314  1.00  0.00    -0.166 F 
ATOM     31  F   UNL     1     130.076 122.362 134.247  1.00  0.00    -0.166 F 
ATOM     32  F   UNL     1     132.151 122.947 134.389  1.00  0.00    -0.166 F 
ENDBRANCH   7  29
BRANCH   4  33
ATOM     33  C   UNL     1     132.789 119.049 129.288  1.00  0.00     0.180 C 
BRANCH  33  34
ATOM     34  S   UNL     1     134.465 118.460 129.520  1.00  0.00     0.182 S 
ATOM     35  O   UNL     1     134.941 118.832 130.839  1.00  0.00    -0.223 OA
ATOM     36  O   UNL     1     135.233 118.802 128.335  1.00  0.00    -0.223 OA
BRANCH  34  37
ATOM     37  C   UNL     1     134.256 116.694 129.528  1.00  0.00     0.067 A 
ATOM     38  C   UNL     1     135.391 115.877 129.537  1.00  0.00     0.020 A 
ATOM     39  C   UNL     1     132.973 116.142 129.497  1.00  0.00     0.020 A 
ATOM     40  C   UNL     1     135.236 114.491 129.540  1.00  0.00     0.001 A 
ATOM     41  C   UNL     1     132.829 114.754 129.501  1.00  0.00     0.001 A 
ATOM     42  C   UNL     1     133.956 113.933 129.526  1.00  0.00     0.000 A 
ENDBRANCH  34  37
ENDBRANCH  33  34
ENDBRANCH   4  33
TORSDOF 8
ENDMDL
