MODEL 1
REMARK VINA RESULT:     -10.1      0.000      0.000
REMARK SMILES Cc1cc(S(=O)(=O)N(C)C)ccc1OCCCCCCN(C)S(=O)(=O)c1ccc(C(C)(C)C)cc1
REMARK SMILES IDX 17 1 16 2 15 3 14 4 13 5 1 6 2 7 3 8 4 9 12 10 11 11 5 12
REMARK SMILES IDX 6 13 7 14 8 15 9 16 10 17 18 18 19 19 20 20 21 21 22 22
REMARK SMILES IDX 23 23 24 24 25 25 26 26 27 27 35 28 28 29 34 30 29 31 30 32
REMARK SMILES IDX 31 33 32 34 33 35
REMARK H PARENT
REMARK Flexibility Score: inf
ROOT
ATOM      1  C   UNL     1     133.919 119.611 130.207  1.00  0.00     0.004 C 
ENDROOT
BRANCH   1   2
ATOM      2  C   UNL     1     132.715 120.411 130.711  1.00  0.00     0.042 C 
BRANCH   2   3
ATOM      3  C   UNL     1     131.492 119.524 130.947  1.00  0.00     0.229 C 
BRANCH   3   4
ATOM      4  O   UNL     1     130.684 120.122 131.959  1.00  0.00    -0.493 OA
BRANCH   4   5
ATOM      5  C   UNL     1     130.421 119.384 133.083  1.00  0.00     0.122 A 
ATOM      6  C   UNL     1     131.375 121.372 134.327  1.00  0.00     0.048 C 
ATOM      7  C   UNL     1     130.757 120.001 134.305  1.00  0.00    -0.008 A 
ATOM      8  C   UNL     1     130.521 119.326 135.512  1.00  0.00     0.029 A 
ATOM      9  C   UNL     1     129.948 118.052 135.495  1.00  0.00     0.083 A 
ATOM     10  C   UNL     1     129.853 118.104 133.084  1.00  0.00     0.048 A 
ATOM     11  C   UNL     1     129.618 117.435 134.287  1.00  0.00     0.025 A 
BRANCH   9  12
ATOM     12  S   UNL     1     129.642 117.186 137.014  1.00  0.00     0.242 S 
ATOM     13  O   UNL     1     129.473 115.788 136.682  1.00  0.00    -0.207 OA
ATOM     14  O   UNL     1     130.618 117.611 137.995  1.00  0.00    -0.207 OA
BRANCH  12  15
ATOM     15  N   UNL     1     128.122 117.809 137.505  1.00  0.00    -0.204 NA
ATOM     16  C   UNL     1     126.948 117.107 136.939  1.00  0.00     0.124 C 
ATOM     17  C   UNL     1     128.017 119.275 137.316  1.00  0.00     0.124 C 
ENDBRANCH  12  15
ENDBRANCH   9  12
ENDBRANCH   4   5
ENDBRANCH   3   4
ENDBRANCH   2   3
ENDBRANCH   1   2
BRANCH   1  18
ATOM     18  C   UNL     1     133.502 118.586 129.150  1.00  0.00     0.001 C 
BRANCH  18  19
ATOM     19  C   UNL     1     134.181 117.235 129.390  1.00  0.00     0.017 C 
BRANCH  19  20
ATOM     20  C   UNL     1     133.225 116.052 129.236  1.00  0.00     0.102 C 
BRANCH  20  21
ATOM     21  N   UNL     1     133.984 114.796 129.030  1.00  0.00    -0.201 NA
ATOM     22  C   UNL     1     135.272 114.748 129.740  1.00  0.00     0.124 C 
BRANCH  21  23
ATOM     23  S   UNL     1     133.104 113.344 128.925  1.00  0.00     0.242 S 
ATOM     24  O   UNL     1     133.804 112.335 129.693  1.00  0.00    -0.207 OA
ATOM     25  O   UNL     1     132.765 113.120 127.535  1.00  0.00    -0.207 OA
BRANCH  23  26
ATOM     26  C   UNL     1     131.594 113.716 129.793  1.00  0.00     0.082 A 
ATOM     27  C   UNL     1     130.388 113.785 129.098  1.00  0.00     0.022 A 
ATOM     28  C   UNL     1     131.614 113.865 131.178  1.00  0.00     0.022 A 
ATOM     29  C   UNL     1     129.199 114.050 129.789  1.00  0.00     0.005 A 
ATOM     30  C   UNL     1     130.422 114.130 131.861  1.00  0.00     0.005 A 
ATOM     31  C   UNL     1     129.190 114.235 131.183  1.00  0.00    -0.043 A 
BRANCH  31  32
ATOM     32  C   UNL     1     127.900 114.525 131.972  1.00  0.00    -0.013 C 
ATOM     33  C   UNL     1     128.200 114.500 133.487  1.00  0.00     0.016 C 
ATOM     34  C   UNL     1     126.841 113.451 131.647  1.00  0.00     0.016 C 
ATOM     35  C   UNL     1     127.269 115.900 131.656  1.00  0.00     0.016 C 
ENDBRANCH  31  32
ENDBRANCH  23  26
ENDBRANCH  21  23
ENDBRANCH  20  21
ENDBRANCH  19  20
ENDBRANCH  18  19
ENDBRANCH   1  18
TORSDOF 13
ENDMDL
MODEL 2
REMARK VINA RESULT:     -10.0      1.186      1.979
REMARK SMILES Cc1cc(S(=O)(=O)N(C)C)ccc1OCCCCCCN(C)S(=O)(=O)c1ccc(C(C)(C)C)cc1
REMARK SMILES IDX 17 1 16 2 15 3 14 4 13 5 1 6 2 7 3 8 4 9 12 10 11 11 5 12
REMARK SMILES IDX 6 13 7 14 8 15 9 16 10 17 18 18 19 19 20 20 21 21 22 22
REMARK SMILES IDX 23 23 24 24 25 25 26 26 27 27 35 28 28 29 34 30 29 31 30 32
REMARK SMILES IDX 31 33 32 34 33 35
REMARK H PARENT
REMARK Flexibility Score: inf
ROOT
ATOM      1  C   UNL     1     132.939 119.301 130.624  1.00  0.00     0.004 C 
ENDROOT
BRANCH   1   2
ATOM      2  C   UNL     1     131.879 120.405 130.565  1.00  0.00     0.042 C 
BRANCH   2   3
ATOM      3  C   UNL     1     131.294 120.716 131.942  1.00  0.00     0.229 C 
BRANCH   3   4
ATOM      4  O   UNL     1     131.736 119.720 132.862  1.00  0.00    -0.493 OA
BRANCH   4   5
ATOM      5  C   UNL     1     130.922 119.428 133.925  1.00  0.00     0.122 A 
ATOM      6  C   UNL     1     130.229 117.424 132.542  1.00  0.00     0.048 C 
ATOM      7  C   UNL     1     130.148 118.258 133.791  1.00  0.00    -0.008 A 
ATOM      8  C   UNL     1     129.287 117.872 134.830  1.00  0.00     0.029 A 
ATOM      9  C   UNL     1     129.209 118.646 135.991  1.00  0.00     0.083 A 
ATOM     10  C   UNL     1     130.828 120.195 135.093  1.00  0.00     0.048 A 
ATOM     11  C   UNL     1     129.970 119.808 136.125  1.00  0.00     0.025 A 
BRANCH   9  12
ATOM     12  S   UNL     1     128.125 118.170 137.313  1.00  0.00     0.242 S 
ATOM     13  O   UNL     1     128.228 119.188 138.336  1.00  0.00    -0.207 OA
ATOM     14  O   UNL     1     126.844 117.797 136.752  1.00  0.00    -0.207 OA
BRANCH  12  15
ATOM     15  N   UNL     1     128.858 116.738 137.906  1.00  0.00    -0.204 NA
ATOM     16  C   UNL     1     130.338 116.732 137.865  1.00  0.00     0.124 C 
ATOM     17  C   UNL     1     128.296 115.512 137.292  1.00  0.00     0.124 C 
ENDBRANCH  12  15
ENDBRANCH   9  12
ENDBRANCH   4   5
ENDBRANCH   3   4
ENDBRANCH   2   3
ENDBRANCH   1   2
BRANCH   1  18
ATOM     18  C   UNL     1     133.054 118.570 129.284  1.00  0.00     0.001 C 
BRANCH  18  19
ATOM     19  C   UNL     1     133.786 117.234 129.444  1.00  0.00     0.017 C 
BRANCH  19  20
ATOM     20  C   UNL     1     132.994 116.052 128.885  1.00  0.00     0.102 C 
BRANCH  20  21
ATOM     21  N   UNL     1     133.829 114.827 128.878  1.00  0.00    -0.201 NA
ATOM     22  C   UNL     1     135.070 114.941 129.659  1.00  0.00     0.124 C 
BRANCH  21  23
ATOM     23  S   UNL     1     133.032 113.323 128.904  1.00  0.00     0.242 S 
ATOM     24  O   UNL     1     133.814 112.414 129.716  1.00  0.00    -0.207 OA
ATOM     25  O   UNL     1     132.665 112.983 127.546  1.00  0.00    -0.207 OA
BRANCH  23  26
ATOM     26  C   UNL     1     131.530 113.671 129.797  1.00  0.00     0.082 A 
ATOM     27  C   UNL     1     130.303 113.633 129.138  1.00  0.00     0.022 A 
ATOM     28  C   UNL     1     131.583 113.906 131.169  1.00  0.00     0.022 A 
ATOM     29  C   UNL     1     129.122 113.878 129.850  1.00  0.00     0.005 A 
ATOM     30  C   UNL     1     130.399 114.152 131.872  1.00  0.00     0.005 A 
ATOM     31  C   UNL     1     129.143 114.150 131.229  1.00  0.00    -0.043 A 
BRANCH  31  32
ATOM     32  C   UNL     1     127.863 114.421 132.041  1.00  0.00    -0.013 C 
ATOM     33  C   UNL     1     126.859 113.266 131.830  1.00  0.00     0.016 C 
ATOM     34  C   UNL     1     127.222 115.743 131.570  1.00  0.00     0.016 C 
ATOM     35  C   UNL     1     128.102 114.543 133.562  1.00  0.00     0.016 C 
ENDBRANCH  31  32
ENDBRANCH  23  26
ENDBRANCH  21  23
ENDBRANCH  20  21
ENDBRANCH  19  20
ENDBRANCH  18  19
ENDBRANCH   1  18
TORSDOF 13
ENDMDL
MODEL 3
REMARK VINA RESULT:      -9.8      0.813      1.388
REMARK SMILES Cc1cc(S(=O)(=O)N(C)C)ccc1OCCCCCCN(C)S(=O)(=O)c1ccc(C(C)(C)C)cc1
REMARK SMILES IDX 17 1 16 2 15 3 14 4 13 5 1 6 2 7 3 8 4 9 12 10 11 11 5 12
REMARK SMILES IDX 6 13 7 14 8 15 9 16 10 17 18 18 19 19 20 20 21 21 22 22
REMARK SMILES IDX 23 23 24 24 25 25 26 26 27 27 35 28 28 29 34 30 29 31 30 32
REMARK SMILES IDX 31 33 32 34 33 35
REMARK H PARENT
REMARK Flexibility Score: inf
ROOT
ATOM      1  C   UNL     1     132.757 118.843 129.126  1.00  0.00     0.004 C 
ENDROOT
BRANCH   1   2
ATOM      2  C   UNL     1     131.808 119.524 130.116  1.00  0.00     0.042 C 
BRANCH   2   3
ATOM      3  C   UNL     1     131.473 118.624 131.305  1.00  0.00     0.229 C 
BRANCH   3   4
ATOM      4  O   UNL     1     130.457 119.254 132.082  1.00  0.00    -0.493 OA
BRANCH   4   5
ATOM      5  C   UNL     1     130.331 118.877 133.393  1.00  0.00     0.122 A 
ATOM      6  C   UNL     1     131.144 121.221 133.900  1.00  0.00     0.048 C 
ATOM      7  C   UNL     1     130.668 119.864 134.342  1.00  0.00    -0.008 A 
ATOM      8  C   UNL     1     130.568 119.574 135.711  1.00  0.00     0.029 A 
ATOM      9  C   UNL     1     130.126 118.315 136.124  1.00  0.00     0.083 A 
ATOM     10  C   UNL     1     129.896 117.618 133.824  1.00  0.00     0.048 A 
ATOM     11  C   UNL     1     129.796 117.333 135.188  1.00  0.00     0.025 A 
BRANCH   9  12
ATOM     12  S   UNL     1     129.993 117.934 137.852  1.00  0.00     0.242 S 
ATOM     13  O   UNL     1     130.602 116.637 138.052  1.00  0.00    -0.207 OA
ATOM     14  O   UNL     1     130.418 119.088 138.616  1.00  0.00    -0.207 OA
BRANCH  12  15
ATOM     15  N   UNL     1     128.300 117.773 138.073  1.00  0.00    -0.204 NA
ATOM     16  C   UNL     1     127.818 116.379 138.196  1.00  0.00     0.124 C 
ATOM     17  C   UNL     1     127.517 118.529 137.068  1.00  0.00     0.124 C 
ENDBRANCH  12  15
ENDBRANCH   9  12
ENDBRANCH   4   5
ENDBRANCH   3   4
ENDBRANCH   2   3
ENDBRANCH   1   2
BRANCH   1  18
ATOM     18  C   UNL     1     134.165 118.707 129.711  1.00  0.00     0.001 C 
BRANCH  18  19
ATOM     19  C   UNL     1     134.781 117.350 129.359  1.00  0.00     0.017 C 
BRANCH  19  20
ATOM     20  C   UNL     1     133.735 116.249 129.180  1.00  0.00     0.102 C 
BRANCH  20  21
ATOM     21  N   UNL     1     134.394 114.939 128.965  1.00  0.00    -0.201 NA
ATOM     22  C   UNL     1     135.491 114.656 129.903  1.00  0.00     0.124 C 
BRANCH  21  23
ATOM     23  S   UNL     1     133.417 113.627 128.496  1.00  0.00     0.242 S 
ATOM     24  O   UNL     1     134.037 112.410 128.977  1.00  0.00    -0.207 OA
ATOM     25  O   UNL     1     133.081 113.790 127.098  1.00  0.00    -0.207 OA
BRANCH  23  26
ATOM     26  C   UNL     1     131.926 113.869 129.440  1.00  0.00     0.082 A 
ATOM     27  C   UNL     1     131.990 114.431 130.714  1.00  0.00     0.022 A 
ATOM     28  C   UNL     1     130.691 113.564 128.869  1.00  0.00     0.022 A 
ATOM     29  C   UNL     1     130.812 114.646 131.440  1.00  0.00     0.005 A 
ATOM     30  C   UNL     1     129.520 113.781 129.602  1.00  0.00     0.005 A 
ATOM     31  C   UNL     1     129.553 114.320 130.905  1.00  0.00    -0.043 A 
BRANCH  31  32
ATOM     32  C   UNL     1     128.240 114.547 131.677  1.00  0.00    -0.013 C 
ATOM     33  C   UNL     1     127.733 115.985 131.430  1.00  0.00     0.016 C 
ATOM     34  C   UNL     1     128.486 114.348 133.187  1.00  0.00     0.016 C 
ATOM     35  C   UNL     1     127.101 113.587 131.268  1.00  0.00     0.016 C 
ENDBRANCH  31  32
ENDBRANCH  23  26
ENDBRANCH  21  23
ENDBRANCH  20  21
ENDBRANCH  19  20
ENDBRANCH  18  19
ENDBRANCH   1  18
TORSDOF 13
ENDMDL
MODEL 4
REMARK VINA RESULT:      -9.8      1.205      1.918
REMARK SMILES Cc1cc(S(=O)(=O)N(C)C)ccc1OCCCCCCN(C)S(=O)(=O)c1ccc(C(C)(C)C)cc1
REMARK SMILES IDX 17 1 16 2 15 3 14 4 13 5 1 6 2 7 3 8 4 9 12 10 11 11 5 12
REMARK SMILES IDX 6 13 7 14 8 15 9 16 10 17 18 18 19 19 20 20 21 21 22 22
REMARK SMILES IDX 23 23 24 24 25 25 26 26 27 27 35 28 28 29 34 30 29 31 30 32
REMARK SMILES IDX 31 33 32 34 33 35
REMARK H PARENT
REMARK Flexibility Score: inf
ROOT
ATOM      1  C   UNL     1     133.106 119.368 130.155  1.00  0.00     0.004 C 
ENDROOT
BRANCH   1   2
ATOM      2  C   UNL     1     132.005 120.427 130.251  1.00  0.00     0.042 C 
BRANCH   2   3
ATOM      3  C   UNL     1     131.757 120.872 131.692  1.00  0.00     0.229 C 
BRANCH   3   4
ATOM      4  O   UNL     1     132.068 119.787 132.564  1.00  0.00    -0.493 OA
BRANCH   4   5
ATOM      5  C   UNL     1     131.169 119.487 133.554  1.00  0.00     0.122 A 
ATOM      6  C   UNL     1     130.677 117.431 132.163  1.00  0.00     0.048 C 
ATOM      7  C   UNL     1     130.452 118.287 133.378  1.00  0.00    -0.008 A 
ATOM      8  C   UNL     1     129.511 117.892 134.342  1.00  0.00     0.029 A 
ATOM      9  C   UNL     1     129.300 118.687 135.472  1.00  0.00     0.083 A 
ATOM     10  C   UNL     1     130.940 120.275 134.690  1.00  0.00     0.048 A 
ATOM     11  C   UNL     1     130.004 119.878 135.648  1.00  0.00     0.025 A 
BRANCH   9  12
ATOM     12  S   UNL     1     128.115 118.199 136.700  1.00  0.00     0.242 S 
ATOM     13  O   UNL     1     127.663 119.406 137.359  1.00  0.00    -0.207 OA
ATOM     14  O   UNL     1     127.175 117.276 136.099  1.00  0.00    -0.207 OA
BRANCH  12  15
ATOM     15  N   UNL     1     129.067 117.305 137.810  1.00  0.00    -0.204 NA
ATOM     16  C   UNL     1     128.324 116.297 138.599  1.00  0.00     0.124 C 
ATOM     17  C   UNL     1     129.893 118.172 138.683  1.00  0.00     0.124 C 
ENDBRANCH  12  15
ENDBRANCH   9  12
ENDBRANCH   4   5
ENDBRANCH   3   4
ENDBRANCH   2   3
ENDBRANCH   1   2
BRANCH   1  18
ATOM     18  C   UNL     1     132.800 118.347 129.057  1.00  0.00     0.001 C 
BRANCH  18  19
ATOM     19  C   UNL     1     133.183 116.930 129.495  1.00  0.00     0.017 C 
BRANCH  19  20
ATOM     20  C   UNL     1     133.126 115.917 128.351  1.00  0.00     0.102 C 
BRANCH  20  21
ATOM     21  N   UNL     1     133.931 114.718 128.682  1.00  0.00    -0.201 NA
ATOM     22  C   UNL     1     134.982 114.956 129.684  1.00  0.00     0.124 C 
BRANCH  21  23
ATOM     23  S   UNL     1     133.133 113.216 128.738  1.00  0.00     0.242 S 
ATOM     24  O   UNL     1     133.935 112.309 129.533  1.00  0.00    -0.207 OA
ATOM     25  O   UNL     1     132.727 112.869 127.393  1.00  0.00    -0.207 OA
BRANCH  23  26
ATOM     26  C   UNL     1     131.657 113.572 129.670  1.00  0.00     0.082 A 
ATOM     27  C   UNL     1     131.736 113.790 131.045  1.00  0.00     0.022 A 
ATOM     28  C   UNL     1     130.438 113.704 129.008  1.00  0.00     0.022 A 
ATOM     29  C   UNL     1     130.578 114.098 131.768  1.00  0.00     0.005 A 
ATOM     30  C   UNL     1     129.286 114.011 129.738  1.00  0.00     0.005 A 
ATOM     31  C   UNL     1     129.327 114.208 131.134  1.00  0.00    -0.043 A 
BRANCH  31  32
ATOM     32  C   UNL     1     128.036 114.548 131.902  1.00  0.00    -0.013 C 
ATOM     33  C   UNL     1     128.316 114.543 133.420  1.00  0.00     0.016 C 
ATOM     34  C   UNL     1     126.952 113.498 131.582  1.00  0.00     0.016 C 
ATOM     35  C   UNL     1     127.448 115.934 131.553  1.00  0.00     0.016 C 
ENDBRANCH  31  32
ENDBRANCH  23  26
ENDBRANCH  21  23
ENDBRANCH  20  21
ENDBRANCH  19  20
ENDBRANCH  18  19
ENDBRANCH   1  18
TORSDOF 13
ENDMDL
MODEL 5
REMARK VINA RESULT:      -9.8      1.620      7.626
REMARK SMILES Cc1cc(S(=O)(=O)N(C)C)ccc1OCCCCCCN(C)S(=O)(=O)c1ccc(C(C)(C)C)cc1
REMARK SMILES IDX 17 1 16 2 15 3 14 4 13 5 1 6 2 7 3 8 4 9 12 10 11 11 5 12
REMARK SMILES IDX 6 13 7 14 8 15 9 16 10 17 18 18 19 19 20 20 21 21 22 22
REMARK SMILES IDX 23 23 24 24 25 25 26 26 27 27 35 28 28 29 34 30 29 31 30 32
REMARK SMILES IDX 31 33 32 34 33 35
REMARK H PARENT
REMARK Flexibility Score: inf
ROOT
ATOM      1  C   UNL     1     130.709 119.559 134.756  1.00  0.00     0.004 C 
ENDROOT
BRANCH   1   2
ATOM      2  C   UNL     1     131.128 118.844 133.469  1.00  0.00     0.042 C 
BRANCH   2   3
ATOM      3  C   UNL     1     131.798 119.792 132.474  1.00  0.00     0.229 C 
BRANCH   3   4
ATOM      4  O   UNL     1     131.400 119.423 131.155  1.00  0.00    -0.493 OA
BRANCH   4   5
ATOM      5  C   UNL     1     131.728 118.167 130.717  1.00  0.00     0.122 A 
ATOM      6  C   UNL     1     133.465 119.364 129.316  1.00  0.00     0.048 C 
ATOM      7  C   UNL     1     132.783 118.107 129.784  1.00  0.00    -0.008 A 
ATOM      8  C   UNL     1     133.195 116.864 129.281  1.00  0.00     0.029 A 
ATOM      9  C   UNL     1     132.563 115.695 129.713  1.00  0.00     0.083 A 
ATOM     10  C   UNL     1     131.102 116.987 131.135  1.00  0.00     0.048 A 
ATOM     11  C   UNL     1     131.515 115.750 130.633  1.00  0.00     0.025 A 
BRANCH   9  12
ATOM     12  S   UNL     1     133.075 114.116 129.086  1.00  0.00     0.242 S 
ATOM     13  O   UNL     1     132.016 113.175 129.385  1.00  0.00    -0.207 OA
ATOM     14  O   UNL     1     133.565 114.289 127.735  1.00  0.00    -0.207 OA
BRANCH  12  15
ATOM     15  N   UNL     1     134.424 113.737 130.073  1.00  0.00    -0.204 NA
ATOM     16  C   UNL     1     135.717 114.278 129.595  1.00  0.00     0.124 C 
ATOM     17  C   UNL     1     134.523 112.290 130.376  1.00  0.00     0.124 C 
ENDBRANCH  12  15
ENDBRANCH   9  12
ENDBRANCH   4   5
ENDBRANCH   3   4
ENDBRANCH   2   3
ENDBRANCH   1   2
BRANCH   1  18
ATOM     18  C   UNL     1     130.806 118.626 135.965  1.00  0.00     0.001 C 
BRANCH  18  19
ATOM     19  C   UNL     1     130.135 119.245 137.196  1.00  0.00     0.017 C 
BRANCH  19  20
ATOM     20  C   UNL     1     129.686 118.200 138.217  1.00  0.00     0.102 C 
BRANCH  20  21
ATOM     21  N   UNL     1     128.242 117.908 138.057  1.00  0.00    -0.201 NA
ATOM     22  C   UNL     1     127.559 118.769 137.079  1.00  0.00     0.124 C 
BRANCH  21  23
ATOM     23  S   UNL     1     127.748 116.281 138.135  1.00  0.00     0.242 S 
ATOM     24  O   UNL     1     126.381 116.248 138.612  1.00  0.00    -0.207 OA
ATOM     25  O   UNL     1     128.788 115.523 138.798  1.00  0.00    -0.207 OA
BRANCH  23  26
ATOM     26  C   UNL     1     127.723 115.778 136.426  1.00  0.00     0.082 A 
ATOM     27  C   UNL     1     126.514 115.717 135.734  1.00  0.00     0.022 A 
ATOM     28  C   UNL     1     128.922 115.520 135.765  1.00  0.00     0.022 A 
ATOM     29  C   UNL     1     126.503 115.349 134.384  1.00  0.00     0.005 A 
ATOM     30  C   UNL     1     128.902 115.153 134.417  1.00  0.00     0.005 A 
ATOM     31  C   UNL     1     127.693 115.052 133.696  1.00  0.00    -0.043 A 
BRANCH  31  32
ATOM     32  C   UNL     1     127.714 114.648 132.210  1.00  0.00    -0.013 C 
ATOM     33  C   UNL     1     127.711 115.914 131.327  1.00  0.00     0.016 C 
ATOM     34  C   UNL     1     126.466 113.800 131.887  1.00  0.00     0.016 C 
ATOM     35  C   UNL     1     128.951 113.815 131.807  1.00  0.00     0.016 C 
ENDBRANCH  31  32
ENDBRANCH  23  26
ENDBRANCH  21  23
ENDBRANCH  20  21
ENDBRANCH  19  20
ENDBRANCH  18  19
ENDBRANCH   1  18
TORSDOF 13
ENDMDL
MODEL 6
REMARK VINA RESULT:      -9.8      1.623      7.481
REMARK SMILES Cc1cc(S(=O)(=O)N(C)C)ccc1OCCCCCCN(C)S(=O)(=O)c1ccc(C(C)(C)C)cc1
REMARK SMILES IDX 17 1 16 2 15 3 14 4 13 5 1 6 2 7 3 8 4 9 12 10 11 11 5 12
REMARK SMILES IDX 6 13 7 14 8 15 9 16 10 17 18 18 19 19 20 20 21 21 22 22
REMARK SMILES IDX 23 23 24 24 25 25 26 26 27 27 35 28 28 29 34 30 29 31 30 32
REMARK SMILES IDX 31 33 32 34 33 35
REMARK H PARENT
REMARK Flexibility Score: inf
ROOT
ATOM      1  C   UNL     1     130.859 119.564 134.943  1.00  0.00     0.004 C 
ENDROOT
BRANCH   1   2
ATOM      2  C   UNL     1     130.011 120.538 134.121  1.00  0.00     0.042 C 
BRANCH   2   3
ATOM      3  C   UNL     1     129.690 119.992 132.731  1.00  0.00     0.229 C 
BRANCH   3   4
ATOM      4  O   UNL     1     130.841 120.144 131.903  1.00  0.00    -0.493 OA
BRANCH   4   5
ATOM      5  C   UNL     1     131.362 119.018 131.322  1.00  0.00     0.122 A 
ATOM      6  C   UNL     1     132.842 120.639 130.060  1.00  0.00     0.048 C 
ATOM      7  C   UNL     1     132.389 119.241 130.383  1.00  0.00    -0.008 A 
ATOM      8  C   UNL     1     132.989 118.150 129.737  1.00  0.00     0.029 A 
ATOM      9  C   UNL     1     132.570 116.851 130.034  1.00  0.00     0.083 A 
ATOM     10  C   UNL     1     130.950 117.710 131.604  1.00  0.00     0.048 A 
ATOM     11  C   UNL     1     131.549 116.625 130.959  1.00  0.00     0.025 A 
BRANCH   9  12
ATOM     12  S   UNL     1     133.320 115.460 129.226  1.00  0.00     0.242 S 
ATOM     13  O   UNL     1     132.701 114.268 129.765  1.00  0.00    -0.207 OA
ATOM     14  O   UNL     1     133.348 115.711 127.800  1.00  0.00    -0.207 OA
BRANCH  12  15
ATOM     15  N   UNL     1     134.939 115.525 129.787  1.00  0.00    -0.204 NA
ATOM     16  C   UNL     1     135.728 116.672 129.282  1.00  0.00     0.124 C 
ATOM     17  C   UNL     1     135.662 114.246 129.596  1.00  0.00     0.124 C 
ENDBRANCH  12  15
ENDBRANCH   9  12
ENDBRANCH   4   5
ENDBRANCH   3   4
ENDBRANCH   2   3
ENDBRANCH   1   2
BRANCH   1  18
ATOM     18  C   UNL     1     130.297 119.397 136.358  1.00  0.00     0.001 C 
BRANCH  18  19
ATOM     19  C   UNL     1     128.874 119.955 136.458  1.00  0.00     0.017 C 
BRANCH  19  20
ATOM     20  C   UNL     1     128.002 119.187 137.451  1.00  0.00     0.102 C 
BRANCH  20  21
ATOM     21  N   UNL     1     128.638 117.898 137.809  1.00  0.00    -0.201 NA
ATOM     22  C   UNL     1     129.621 117.995 138.900  1.00  0.00     0.124 C 
BRANCH  21  23
ATOM     23  S   UNL     1     127.676 116.495 137.756  1.00  0.00     0.242 S 
ATOM     24  O   UNL     1     126.301 116.883 137.994  1.00  0.00    -0.207 OA
ATOM     25  O   UNL     1     128.315 115.478 138.563  1.00  0.00    -0.207 OA
BRANCH  23  26
ATOM     26  C   UNL     1     127.793 115.983 136.054  1.00  0.00     0.082 A 
ATOM     27  C   UNL     1     129.043 115.848 135.450  1.00  0.00     0.022 A 
ATOM     28  C   UNL     1     126.636 115.648 135.353  1.00  0.00     0.022 A 
ATOM     29  C   UNL     1     129.131 115.417 134.121  1.00  0.00     0.005 A 
ATOM     30  C   UNL     1     126.733 115.220 134.026  1.00  0.00     0.005 A 
ATOM     31  C   UNL     1     127.980 115.101 133.377  1.00  0.00    -0.043 A 
BRANCH  31  32
ATOM     32  C   UNL     1     128.044 114.622 131.914  1.00  0.00    -0.013 C 
ATOM     33  C   UNL     1     126.908 113.611 131.648  1.00  0.00     0.016 C 
ATOM     34  C   UNL     1     129.403 113.941 131.652  1.00  0.00     0.016 C 
ATOM     35  C   UNL     1     127.894 115.758 130.878  1.00  0.00     0.016 C 
ENDBRANCH  31  32
ENDBRANCH  23  26
ENDBRANCH  21  23
ENDBRANCH  20  21
ENDBRANCH  19  20
ENDBRANCH  18  19
ENDBRANCH   1  18
TORSDOF 13
ENDMDL
MODEL 7
REMARK VINA RESULT:      -9.8      0.817      1.266
REMARK SMILES Cc1cc(S(=O)(=O)N(C)C)ccc1OCCCCCCN(C)S(=O)(=O)c1ccc(C(C)(C)C)cc1
REMARK SMILES IDX 17 1 16 2 15 3 14 4 13 5 1 6 2 7 3 8 4 9 12 10 11 11 5 12
REMARK SMILES IDX 6 13 7 14 8 15 9 16 10 17 18 18 19 19 20 20 21 21 22 22
REMARK SMILES IDX 23 23 24 24 25 25 26 26 27 27 35 28 28 29 34 30 29 31 30 32
REMARK SMILES IDX 31 33 32 34 33 35
REMARK H PARENT
REMARK Flexibility Score: inf
ROOT
ATOM      1  C   UNL     1     132.771 118.629 129.598  1.00  0.00     0.004 C 
ENDROOT
BRANCH   1   2
ATOM      2  C   UNL     1     132.397 118.895 131.058  1.00  0.00     0.042 C 
BRANCH   2   3
ATOM      3  C   UNL     1     130.933 119.309 131.212  1.00  0.00     0.229 C 
BRANCH   3   4
ATOM      4  O   UNL     1     130.807 120.108 132.387  1.00  0.00    -0.493 OA
BRANCH   4   5
ATOM      5  C   UNL     1     130.491 119.471 133.559  1.00  0.00     0.122 A 
ATOM      6  C   UNL     1     131.298 121.603 134.660  1.00  0.00     0.048 C 
ATOM      7  C   UNL     1     130.725 120.214 134.733  1.00  0.00    -0.008 A 
ATOM      8  C   UNL     1     130.428 119.650 135.983  1.00  0.00     0.029 A 
ATOM      9  C   UNL     1     129.896 118.360 136.054  1.00  0.00     0.083 A 
ATOM     10  C   UNL     1     129.962 118.178 133.648  1.00  0.00     0.048 A 
ATOM     11  C   UNL     1     129.668 117.618 134.893  1.00  0.00     0.025 A 
BRANCH   9  12
ATOM     12  S   UNL     1     129.515 117.633 137.627  1.00  0.00     0.242 S 
ATOM     13  O   UNL     1     130.583 116.707 137.940  1.00  0.00    -0.207 OA
ATOM     14  O   UNL     1     129.142 118.687 138.548  1.00  0.00    -0.207 OA
BRANCH  12  15
ATOM     15  N   UNL     1     128.099 116.726 137.291  1.00  0.00    -0.204 NA
ATOM     16  C   UNL     1     126.854 117.523 137.205  1.00  0.00     0.124 C 
ATOM     17  C   UNL     1     127.936 115.565 138.196  1.00  0.00     0.124 C 
ENDBRANCH  12  15
ENDBRANCH   9  12
ENDBRANCH   4   5
ENDBRANCH   3   4
ENDBRANCH   2   3
ENDBRANCH   1   2
BRANCH   1  18
ATOM     18  C   UNL     1     134.288 118.660 129.399  1.00  0.00     0.001 C 
BRANCH  18  19
ATOM     19  C   UNL     1     134.874 117.245 129.387  1.00  0.00     0.017 C 
BRANCH  19  20
ATOM     20  C   UNL     1     133.809 116.161 129.217  1.00  0.00     0.102 C 
BRANCH  20  21
ATOM     21  N   UNL     1     134.445 114.838 129.017  1.00  0.00    -0.201 NA
ATOM     22  C   UNL     1     135.534 114.544 129.961  1.00  0.00     0.124 C 
BRANCH  21  23
ATOM     23  S   UNL     1     133.446 113.538 128.559  1.00  0.00     0.242 S 
ATOM     24  O   UNL     1     134.040 112.316 129.057  1.00  0.00    -0.207 OA
ATOM     25  O   UNL     1     133.120 113.691 127.156  1.00  0.00    -0.207 OA
BRANCH  23  26
ATOM     26  C   UNL     1     131.954 113.820 129.491  1.00  0.00     0.082 A 
ATOM     27  C   UNL     1     130.715 113.779 128.854  1.00  0.00     0.022 A 
ATOM     28  C   UNL     1     132.028 114.005 130.870  1.00  0.00     0.022 A 
ATOM     29  C   UNL     1     129.544 113.972 129.596  1.00  0.00     0.005 A 
ATOM     30  C   UNL     1     130.853 114.198 131.604  1.00  0.00     0.005 A 
ATOM     31  C   UNL     1     129.586 114.193 130.984  1.00  0.00    -0.043 A 
BRANCH  31  32
ATOM     32  C   UNL     1     128.316 114.406 131.829  1.00  0.00    -0.013 C 
ATOM     33  C   UNL     1     127.688 115.775 131.488  1.00  0.00     0.016 C 
ATOM     34  C   UNL     1     128.679 114.373 133.328  1.00  0.00     0.016 C 
ATOM     35  C   UNL     1     127.226 113.336 131.598  1.00  0.00     0.016 C 
ENDBRANCH  31  32
ENDBRANCH  23  26
ENDBRANCH  21  23
ENDBRANCH  20  21
ENDBRANCH  19  20
ENDBRANCH  18  19
ENDBRANCH   1  18
TORSDOF 13
ENDMDL
MODEL 8
REMARK VINA RESULT:      -9.7      1.531      7.801
REMARK SMILES Cc1cc(S(=O)(=O)N(C)C)ccc1OCCCCCCN(C)S(=O)(=O)c1ccc(C(C)(C)C)cc1
REMARK SMILES IDX 17 1 16 2 15 3 14 4 13 5 1 6 2 7 3 8 4 9 12 10 11 11 5 12
REMARK SMILES IDX 6 13 7 14 8 15 9 16 10 17 18 18 19 19 20 20 21 21 22 22
REMARK SMILES IDX 23 23 24 24 25 25 26 26 27 27 35 28 28 29 34 30 29 31 30 32
REMARK SMILES IDX 31 33 32 34 33 35
REMARK H PARENT
REMARK Flexibility Score: inf
ROOT
ATOM      1  C   UNL     1     130.783 119.915 134.340  1.00  0.00     0.004 C 
ENDROOT
BRANCH   1   2
ATOM      2  C   UNL     1     131.589 119.335 133.174  1.00  0.00     0.042 C 
BRANCH   2   3
ATOM      3  C   UNL     1     130.710 119.025 131.963  1.00  0.00     0.229 C 
BRANCH   3   4
ATOM      4  O   UNL     1     131.537 118.971 130.802  1.00  0.00    -0.493 OA
BRANCH   4   5
ATOM      5  C   UNL     1     131.985 117.742 130.395  1.00  0.00     0.122 A 
ATOM      6  C   UNL     1     133.816 119.053 129.239  1.00  0.00     0.048 C 
ATOM      7  C   UNL     1     133.150 117.754 129.602  1.00  0.00    -0.008 A 
ATOM      8  C   UNL     1     133.689 116.544 129.140  1.00  0.00     0.029 A 
ATOM      9  C   UNL     1     133.072 115.336 129.476  1.00  0.00     0.083 A 
ATOM     10  C   UNL     1     131.375 116.523 130.717  1.00  0.00     0.048 A 
ATOM     11  C   UNL     1     131.915 115.319 130.256  1.00  0.00     0.025 A 
BRANCH   9  12
ATOM     12  S   UNL     1     133.743 113.797 128.900  1.00  0.00     0.242 S 
ATOM     13  O   UNL     1     133.343 112.777 129.846  1.00  0.00    -0.207 OA
ATOM     14  O   UNL     1     133.455 113.664 127.487  1.00  0.00    -0.207 OA
BRANCH  12  15
ATOM     15  N   UNL     1     135.433 114.040 129.055  1.00  0.00    -0.204 NA
ATOM     16  C   UNL     1     136.259 112.830 128.844  1.00  0.00     0.124 C 
ATOM     17  C   UNL     1     135.798 114.731 130.314  1.00  0.00     0.124 C 
ENDBRANCH  12  15
ENDBRANCH   9  12
ENDBRANCH   4   5
ENDBRANCH   3   4
ENDBRANCH   2   3
ENDBRANCH   1   2
BRANCH   1  18
ATOM     18  C   UNL     1     130.736 118.941 135.520  1.00  0.00     0.001 C 
BRANCH  18  19
ATOM     19  C   UNL     1     129.755 119.421 136.594  1.00  0.00     0.017 C 
BRANCH  19  20
ATOM     20  C   UNL     1     128.485 118.572 136.662  1.00  0.00     0.102 C 
BRANCH  20  21
ATOM     21  N   UNL     1     128.428 117.829 137.944  1.00  0.00    -0.201 NA
ATOM     22  C   UNL     1     128.209 118.681 139.123  1.00  0.00     0.124 C 
BRANCH  21  23
ATOM     23  S   UNL     1     127.682 116.300 137.942  1.00  0.00     0.242 S 
ATOM     24  O   UNL     1     126.292 116.476 138.307  1.00  0.00    -0.207 OA
ATOM     25  O   UNL     1     128.533 115.381 138.669  1.00  0.00    -0.207 OA
BRANCH  23  26
ATOM     26  C   UNL     1     127.722 115.826 136.226  1.00  0.00     0.082 A 
ATOM     27  C   UNL     1     128.920 115.415 135.643  1.00  0.00     0.022 A 
ATOM     28  C   UNL     1     126.539 115.798 135.490  1.00  0.00     0.022 A 
ATOM     29  C   UNL     1     128.940 115.016 134.301  1.00  0.00     0.005 A 
ATOM     30  C   UNL     1     126.568 115.399 134.150  1.00  0.00     0.005 A 
ATOM     31  C   UNL     1     127.769 115.005 133.523  1.00  0.00    -0.043 A 
BRANCH  31  32
ATOM     32  C   UNL     1     127.759 114.570 132.046  1.00  0.00    -0.013 C 
ATOM     33  C   UNL     1     129.050 113.785 131.726  1.00  0.00     0.016 C 
ATOM     34  C   UNL     1     127.685 115.816 131.139  1.00  0.00     0.016 C 
ATOM     35  C   UNL     1     126.569 113.659 131.671  1.00  0.00     0.016 C 
ENDBRANCH  31  32
ENDBRANCH  23  26
ENDBRANCH  21  23
ENDBRANCH  20  21
ENDBRANCH  19  20
ENDBRANCH  18  19
ENDBRANCH   1  18
TORSDOF 13
ENDMDL
MODEL 9
REMARK VINA RESULT:      -9.6      1.831      7.378
REMARK SMILES Cc1cc(S(=O)(=O)N(C)C)ccc1OCCCCCCN(C)S(=O)(=O)c1ccc(C(C)(C)C)cc1
REMARK SMILES IDX 17 1 16 2 15 3 14 4 13 5 1 6 2 7 3 8 4 9 12 10 11 11 5 12
REMARK SMILES IDX 6 13 7 14 8 15 9 16 10 17 18 18 19 19 20 20 21 21 22 22
REMARK SMILES IDX 23 23 24 24 25 25 26 26 27 27 35 28 28 29 34 30 29 31 30 32
REMARK SMILES IDX 31 33 32 34 33 35
REMARK H PARENT
REMARK Flexibility Score: inf
ROOT
ATOM      1  C   UNL     1     129.235 121.139 134.105  1.00  0.00     0.004 C 
ENDROOT
BRANCH   1   2
ATOM      2  C   UNL     1     130.713 121.339 134.450  1.00  0.00     0.042 C 
BRANCH   2   3
ATOM      3  C   UNL     1     131.624 121.102 133.246  1.00  0.00     0.229 C 
BRANCH   3   4
ATOM      4  O   UNL     1     130.907 120.343 132.274  1.00  0.00    -0.493 OA
BRANCH   4   5
ATOM      5  C   UNL     1     131.622 119.488 131.478  1.00  0.00     0.122 A 
ATOM      6  C   UNL     1     130.226 117.679 132.567  1.00  0.00     0.048 C 
ATOM      7  C   UNL     1     131.290 118.124 131.602  1.00  0.00    -0.008 A 
ATOM      8  C   UNL     1     131.965 117.171 130.824  1.00  0.00     0.029 A 
ATOM      9  C   UNL     1     132.955 117.581 129.928  1.00  0.00     0.083 A 
ATOM     10  C   UNL     1     132.621 119.882 130.579  1.00  0.00     0.048 A 
ATOM     11  C   UNL     1     133.291 118.930 129.805  1.00  0.00     0.025 A 
BRANCH   9  12
ATOM     12  S   UNL     1     133.816 116.388 128.936  1.00  0.00     0.242 S 
ATOM     13  O   UNL     1     133.119 116.300 127.671  1.00  0.00    -0.207 OA
ATOM     14  O   UNL     1     135.235 116.674 128.992  1.00  0.00    -0.207 OA
BRANCH  12  15
ATOM     15  N   UNL     1     133.557 114.926 129.795  1.00  0.00    -0.204 NA
ATOM     16  C   UNL     1     134.686 113.970 129.752  1.00  0.00     0.124 C 
ATOM     17  C   UNL     1     132.279 114.270 129.434  1.00  0.00     0.124 C 
ENDBRANCH  12  15
ENDBRANCH   9  12
ENDBRANCH   4   5
ENDBRANCH   3   4
ENDBRANCH   2   3
ENDBRANCH   1   2
BRANCH   1  18
ATOM     18  C   UNL     1     128.426 120.735 135.340  1.00  0.00     0.001 C 
BRANCH  18  19
ATOM     19  C   UNL     1     128.842 119.350 135.845  1.00  0.00     0.017 C 
BRANCH  19  20
ATOM     20  C   UNL     1     127.984 118.859 137.011  1.00  0.00     0.102 C 
BRANCH  20  21
ATOM     21  N   UNL     1     128.620 117.693 137.667  1.00  0.00    -0.201 NA
ATOM     22  C   UNL     1     129.441 118.035 138.839  1.00  0.00     0.124 C 
BRANCH  21  23
ATOM     23  S   UNL     1     127.734 116.241 137.739  1.00  0.00     0.242 S 
ATOM     24  O   UNL     1     126.357 116.569 138.049  1.00  0.00    -0.207 OA
ATOM     25  O   UNL     1     128.476 115.298 138.549  1.00  0.00    -0.207 OA
BRANCH  23  26
ATOM     26  C   UNL     1     127.772 115.654 136.058  1.00  0.00     0.082 A 
ATOM     27  C   UNL     1     126.633 115.748 135.260  1.00  0.00     0.022 A 
ATOM     28  C   UNL     1     128.965 115.172 135.523  1.00  0.00     0.022 A 
ATOM     29  C   UNL     1     126.676 115.312 133.931  1.00  0.00     0.005 A 
ATOM     30  C   UNL     1     128.999 114.737 134.195  1.00  0.00     0.005 A 
ATOM     31  C   UNL     1     127.856 114.791 133.370  1.00  0.00    -0.043 A 
BRANCH  31  32
ATOM     32  C   UNL     1     127.936 114.305 131.911  1.00  0.00    -0.013 C 
ATOM     33  C   UNL     1     127.483 115.436 130.961  1.00  0.00     0.016 C 
ATOM     34  C   UNL     1     127.015 113.083 131.720  1.00  0.00     0.016 C 
ATOM     35  C   UNL     1     129.355 113.883 131.470  1.00  0.00     0.016 C 
ENDBRANCH  31  32
ENDBRANCH  23  26
ENDBRANCH  21  23
ENDBRANCH  20  21
ENDBRANCH  19  20
ENDBRANCH  18  19
ENDBRANCH   1  18
TORSDOF 13
ENDMDL
