MODEL 1
REMARK VINA RESULT:     -13.4      0.000      0.000
REMARK SMILES Cc1ccc(NC(=O)c2c(C(F)(F)F)ccc(CS(=O)(=O)c3ccccc3)c2F)c(-c2ccccc2)c1
REMARK SMILES IDX 9 1 28 2 29 3 17 4 16 5 15 6 10 7 7 8 6 9 8 11 5 12 1 13
REMARK SMILES IDX 2 14 3 15 37 16 4 17 30 18 31 19 32 20 36 21 33 22 35 23
REMARK SMILES IDX 34 24 11 25 12 26 13 27 14 28 18 29 19 30 20 31 21 32 22 33
REMARK SMILES IDX 23 34 27 35 24 36 26 37 25 38
REMARK H PARENT 6 10
REMARK Flexibility Score: inf
ROOT
ATOM      1  C   UNL     1     131.166 119.380 132.224  1.00  0.00     0.088 A 
ATOM      2  C   UNL     1     130.263 119.075 133.252  1.00  0.00     0.140 A 
ATOM      3  F   UNL     1     129.611 117.902 133.251  1.00  0.00    -0.206 F 
ATOM      4  C   UNL     1     129.991 119.963 134.299  1.00  0.00     0.004 A 
ATOM      5  C   UNL     1     130.657 121.189 134.323  1.00  0.00     0.008 A 
ATOM      6  C   UNL     1     131.579 121.503 133.321  1.00  0.00     0.014 A 
ATOM      7  C   UNL     1     131.856 120.608 132.267  1.00  0.00     0.071 A 
ENDROOT
BRANCH   1   8
ATOM      8  C   UNL     1     131.336 118.435 131.079  1.00  0.00     0.259 C 
ATOM      9  N   UNL     1     131.775 117.166 131.398  1.00  0.00    -0.321 N 
ATOM     10  H   UNL     1     131.850 116.939 132.383  1.00  0.00     0.170 HD
ATOM     11  O   UNL     1     131.054 118.844 129.961  1.00  0.00    -0.269 OA
BRANCH   9  12
ATOM     12  C   UNL     1     132.039 116.084 130.520  1.00  0.00     0.049 A 
ATOM     13  C   UNL     1     132.788 112.692 127.937  1.00  0.00     0.044 C 
ATOM     14  C   UNL     1     132.514 113.877 128.813  1.00  0.00    -0.050 A 
ATOM     15  C   UNL     1     133.401 114.954 128.849  1.00  0.00     0.005 A 
ATOM     16  C   UNL     1     131.395 113.898 129.652  1.00  0.00     0.014 A 
ATOM     17  C   UNL     1     133.163 116.047 129.690  1.00  0.00     0.027 A 
ATOM     18  C   UNL     1     131.137 114.990 130.505  1.00  0.00     0.006 A 
BRANCH  18  19
ATOM     19  C   UNL     1     129.924 114.956 131.339  1.00  0.00    -0.016 A 
ATOM     20  C   UNL     1     128.761 115.629 130.939  1.00  0.00     0.009 A 
ATOM     21  C   UNL     1     129.904 114.231 132.540  1.00  0.00     0.009 A 
ATOM     22  C   UNL     1     127.605 115.575 131.720  1.00  0.00     0.001 A 
ATOM     23  C   UNL     1     128.748 114.177 133.321  1.00  0.00     0.001 A 
ATOM     24  C   UNL     1     127.598 114.849 132.909  1.00  0.00     0.000 A 
ENDBRANCH  18  19
ENDBRANCH   9  12
ENDBRANCH   1   8
BRANCH   7  25
ATOM     25  C   UNL     1     132.896 120.997 131.238  1.00  0.00     0.417 C 
ATOM     26  F   UNL     1     133.711 121.997 131.700  1.00  0.00    -0.166 F 
ATOM     27  F   UNL     1     133.750 119.989 130.915  1.00  0.00    -0.166 F 
ATOM     28  F   UNL     1     132.368 121.487 130.087  1.00  0.00    -0.166 F 
ENDBRANCH   7  25
BRANCH   4  29
ATOM     29  C   UNL     1     128.980 119.602 135.355  1.00  0.00     0.180 C 
BRANCH  29  30
ATOM     30  S   UNL     1     129.775 118.958 136.818  1.00  0.00     0.182 S 
ATOM     31  O   UNL     1     131.080 118.455 136.422  1.00  0.00    -0.223 OA
ATOM     32  O   UNL     1     129.674 119.945 137.878  1.00  0.00    -0.223 OA
BRANCH  30  33
ATOM     33  C   UNL     1     128.806 117.546 137.296  1.00  0.00     0.067 A 
ATOM     34  C   UNL     1     128.774 116.424 136.461  1.00  0.00     0.020 A 
ATOM     35  C   UNL     1     128.098 117.564 138.500  1.00  0.00     0.020 A 
ATOM     36  C   UNL     1     127.991 115.327 136.820  1.00  0.00     0.001 A 
ATOM     37  C   UNL     1     127.313 116.465 138.848  1.00  0.00     0.001 A 
ATOM     38  C   UNL     1     127.256 115.353 138.008  1.00  0.00     0.000 A 
ENDBRANCH  30  33
ENDBRANCH  29  30
ENDBRANCH   4  29
TORSDOF 7
ENDMDL
MODEL 2
REMARK VINA RESULT:     -13.3      0.086      1.014
REMARK SMILES Cc1ccc(NC(=O)c2c(C(F)(F)F)ccc(CS(=O)(=O)c3ccccc3)c2F)c(-c2ccccc2)c1
REMARK SMILES IDX 9 1 28 2 29 3 17 4 16 5 15 6 10 7 7 8 6 9 8 11 5 12 1 13
REMARK SMILES IDX 2 14 3 15 37 16 4 17 30 18 31 19 32 20 36 21 33 22 35 23
REMARK SMILES IDX 34 24 11 25 12 26 13 27 14 28 18 29 19 30 20 31 21 32 22 33
REMARK SMILES IDX 23 34 27 35 24 36 26 37 25 38
REMARK H PARENT 6 10
REMARK Flexibility Score: inf
ROOT
ATOM      1  C   UNL     1     131.155 119.444 132.268  1.00  0.00     0.088 A 
ATOM      2  C   UNL     1     130.258 119.146 133.304  1.00  0.00     0.140 A 
ATOM      3  F   UNL     1     129.601 117.976 133.311  1.00  0.00    -0.206 F 
ATOM      4  C   UNL     1     129.999 120.037 134.352  1.00  0.00     0.004 A 
ATOM      5  C   UNL     1     130.671 121.261 134.366  1.00  0.00     0.008 A 
ATOM      6  C   UNL     1     131.586 121.568 133.357  1.00  0.00     0.014 A 
ATOM      7  C   UNL     1     131.851 120.668 132.302  1.00  0.00     0.071 A 
ENDROOT
BRANCH   1   8
ATOM      8  C   UNL     1     131.311 118.496 131.125  1.00  0.00     0.259 C 
ATOM      9  N   UNL     1     131.755 117.228 131.441  1.00  0.00    -0.321 N 
ATOM     10  H   UNL     1     131.843 117.005 132.427  1.00  0.00     0.170 HD
ATOM     11  O   UNL     1     131.014 118.900 130.008  1.00  0.00    -0.269 OA
BRANCH   9  12
ATOM     12  C   UNL     1     132.009 116.143 130.564  1.00  0.00     0.049 A 
ATOM     13  C   UNL     1     132.725 112.744 127.982  1.00  0.00     0.044 C 
ATOM     14  C   UNL     1     132.463 113.932 128.857  1.00  0.00    -0.050 A 
ATOM     15  C   UNL     1     133.361 115.000 128.894  1.00  0.00     0.005 A 
ATOM     16  C   UNL     1     131.344 113.964 129.696  1.00  0.00     0.014 A 
ATOM     17  C   UNL     1     133.134 116.095 129.735  1.00  0.00     0.027 A 
ATOM     18  C   UNL     1     131.096 115.058 130.549  1.00  0.00     0.006 A 
BRANCH  18  19
ATOM     19  C   UNL     1     129.883 115.037 131.381  1.00  0.00    -0.016 A 
ATOM     20  C   UNL     1     128.724 115.716 130.977  1.00  0.00     0.009 A 
ATOM     21  C   UNL     1     129.856 114.318 132.586  1.00  0.00     0.009 A 
ATOM     22  C   UNL     1     127.567 115.674 131.758  1.00  0.00     0.001 A 
ATOM     23  C   UNL     1     128.699 114.276 133.367  1.00  0.00     0.001 A 
ATOM     24  C   UNL     1     127.554 114.953 132.950  1.00  0.00     0.000 A 
ENDBRANCH  18  19
ENDBRANCH   9  12
ENDBRANCH   1   8
BRANCH   7  25
ATOM     25  C   UNL     1     132.884 121.050 131.264  1.00  0.00     0.417 C 
ATOM     26  F   UNL     1     132.295 121.482 130.105  1.00  0.00    -0.166 F 
ATOM     27  F   UNL     1     133.682 122.085 131.641  1.00  0.00    -0.166 F 
ATOM     28  F   UNL     1     133.682 120.020 130.883  1.00  0.00    -0.166 F 
ENDBRANCH   7  25
BRANCH   4  29
ATOM     29  C   UNL     1     128.995 119.685 135.417  1.00  0.00     0.180 C 
BRANCH  29  30
ATOM     30  S   UNL     1     129.793 118.965 136.844  1.00  0.00     0.182 S 
ATOM     31  O   UNL     1     131.070 118.427 136.406  1.00  0.00    -0.223 OA
ATOM     32  O   UNL     1     129.748 119.921 137.935  1.00  0.00    -0.223 OA
BRANCH  30  33
ATOM     33  C   UNL     1     128.780 117.575 137.295  1.00  0.00     0.067 A 
ATOM     34  C   UNL     1     128.090 117.598 138.512  1.00  0.00     0.020 A 
ATOM     35  C   UNL     1     128.673 116.483 136.430  1.00  0.00     0.020 A 
ATOM     36  C   UNL     1     127.319 116.496 138.880  1.00  0.00     0.001 A 
ATOM     37  C   UNL     1     127.904 115.383 136.810  1.00  0.00     0.001 A 
ATOM     38  C   UNL     1     127.234 115.388 138.034  1.00  0.00     0.000 A 
ENDBRANCH  30  33
ENDBRANCH  29  30
ENDBRANCH   4  29
TORSDOF 7
ENDMDL
MODEL 3
REMARK VINA RESULT:     -13.3      0.240      1.131
REMARK SMILES Cc1ccc(NC(=O)c2c(C(F)(F)F)ccc(CS(=O)(=O)c3ccccc3)c2F)c(-c2ccccc2)c1
REMARK SMILES IDX 9 1 28 2 29 3 17 4 16 5 15 6 10 7 7 8 6 9 8 11 5 12 1 13
REMARK SMILES IDX 2 14 3 15 37 16 4 17 30 18 31 19 32 20 36 21 33 22 35 23
REMARK SMILES IDX 34 24 11 25 12 26 13 27 14 28 18 29 19 30 20 31 21 32 22 33
REMARK SMILES IDX 23 34 27 35 24 36 26 37 25 38
REMARK H PARENT 6 10
REMARK Flexibility Score: inf
ROOT
ATOM      1  C   UNL     1     131.116 119.410 132.241  1.00  0.00     0.088 A 
ATOM      2  C   UNL     1     130.178 119.113 133.240  1.00  0.00     0.140 A 
ATOM      3  F   UNL     1     129.510 117.950 133.214  1.00  0.00    -0.206 F 
ATOM      4  C   UNL     1     129.888 120.001 134.283  1.00  0.00     0.004 A 
ATOM      5  C   UNL     1     130.571 121.217 134.332  1.00  0.00     0.008 A 
ATOM      6  C   UNL     1     131.527 121.522 133.360  1.00  0.00     0.014 A 
ATOM      7  C   UNL     1     131.822 120.627 132.310  1.00  0.00     0.071 A 
ENDROOT
BRANCH   1   8
ATOM      8  C   UNL     1     131.306 118.468 131.097  1.00  0.00     0.259 C 
ATOM      9  N   UNL     1     131.719 117.191 131.423  1.00  0.00    -0.321 N 
ATOM     10  H   UNL     1     131.762 116.959 132.409  1.00  0.00     0.170 HD
ATOM     11  O   UNL     1     131.062 118.884 129.973  1.00  0.00    -0.269 OA
BRANCH   9  12
ATOM     12  C   UNL     1     131.994 116.109 130.548  1.00  0.00     0.049 A 
ATOM     13  C   UNL     1     132.774 112.717 127.975  1.00  0.00     0.044 C 
ATOM     14  C   UNL     1     132.489 113.902 128.847  1.00  0.00    -0.050 A 
ATOM     15  C   UNL     1     133.375 114.980 128.893  1.00  0.00     0.005 A 
ATOM     16  C   UNL     1     131.362 113.923 129.674  1.00  0.00     0.014 A 
ATOM     17  C   UNL     1     133.127 116.073 129.730  1.00  0.00     0.027 A 
ATOM     18  C   UNL     1     131.093 115.014 130.524  1.00  0.00     0.006 A 
BRANCH  18  19
ATOM     19  C   UNL     1     129.871 114.979 131.344  1.00  0.00    -0.016 A 
ATOM     20  C   UNL     1     129.858 114.319 132.582  1.00  0.00     0.009 A 
ATOM     21  C   UNL     1     128.702 115.624 130.912  1.00  0.00     0.009 A 
ATOM     22  C   UNL     1     128.704 114.308 133.369  1.00  0.00     0.001 A 
ATOM     23  C   UNL     1     127.549 115.613 131.699  1.00  0.00     0.001 A 
ATOM     24  C   UNL     1     127.552 114.956 132.928  1.00  0.00     0.000 A 
ENDBRANCH  18  19
ENDBRANCH   9  12
ENDBRANCH   1   8
BRANCH   7  25
ATOM     25  C   UNL     1     132.898 121.005 131.314  1.00  0.00     0.417 C 
ATOM     26  F   UNL     1     133.732 121.969 131.816  1.00  0.00    -0.166 F 
ATOM     27  F   UNL     1     133.727 119.978 130.988  1.00  0.00    -0.166 F 
ATOM     28  F   UNL     1     132.413 121.536 130.162  1.00  0.00    -0.166 F 
ENDBRANCH   7  25
BRANCH   4  29
ATOM     29  C   UNL     1     128.841 119.651 135.307  1.00  0.00     0.180 C 
BRANCH  29  30
ATOM     30  S   UNL     1     129.578 118.922 136.761  1.00  0.00     0.182 S 
ATOM     31  O   UNL     1     130.836 118.315 136.358  1.00  0.00    -0.223 OA
ATOM     32  O   UNL     1     129.561 119.900 137.834  1.00  0.00    -0.223 OA
BRANCH  30  33
ATOM     33  C   UNL     1     128.492 117.591 137.220  1.00  0.00     0.067 A 
ATOM     34  C   UNL     1     128.107 117.452 138.557  1.00  0.00     0.020 A 
ATOM     35  C   UNL     1     128.026 116.706 136.243  1.00  0.00     0.020 A 
ATOM     36  C   UNL     1     127.279 116.391 138.922  1.00  0.00     0.001 A 
ATOM     37  C   UNL     1     127.202 115.646 136.619  1.00  0.00     0.001 A 
ATOM     38  C   UNL     1     126.835 115.486 137.956  1.00  0.00     0.000 A 
ENDBRANCH  30  33
ENDBRANCH  29  30
ENDBRANCH   4  29
TORSDOF 7
ENDMDL
MODEL 4
REMARK VINA RESULT:     -13.3      0.113      1.014
REMARK SMILES Cc1ccc(NC(=O)c2c(C(F)(F)F)ccc(CS(=O)(=O)c3ccccc3)c2F)c(-c2ccccc2)c1
REMARK SMILES IDX 9 1 28 2 29 3 17 4 16 5 15 6 10 7 7 8 6 9 8 11 5 12 1 13
REMARK SMILES IDX 2 14 3 15 37 16 4 17 30 18 31 19 32 20 36 21 33 22 35 23
REMARK SMILES IDX 34 24 11 25 12 26 13 27 14 28 18 29 19 30 20 31 21 32 22 33
REMARK SMILES IDX 23 34 27 35 24 36 26 37 25 38
REMARK H PARENT 6 10
REMARK Flexibility Score: inf
ROOT
ATOM      1  C   UNL     1     131.146 119.426 132.293  1.00  0.00     0.088 A 
ATOM      2  C   UNL     1     130.257 119.119 133.334  1.00  0.00     0.140 A 
ATOM      3  F   UNL     1     129.605 117.947 133.340  1.00  0.00    -0.206 F 
ATOM      4  C   UNL     1     130.000 120.006 134.386  1.00  0.00     0.004 A 
ATOM      5  C   UNL     1     130.666 121.232 134.401  1.00  0.00     0.008 A 
ATOM      6  C   UNL     1     131.573 121.548 133.387  1.00  0.00     0.014 A 
ATOM      7  C   UNL     1     131.836 120.654 132.328  1.00  0.00     0.071 A 
ENDROOT
BRANCH   1   8
ATOM      8  C   UNL     1     131.300 118.483 131.145  1.00  0.00     0.259 C 
ATOM      9  N   UNL     1     131.744 117.214 131.456  1.00  0.00    -0.321 N 
ATOM     10  H   UNL     1     131.833 116.985 132.440  1.00  0.00     0.170 HD
ATOM     11  O   UNL     1     131.001 118.892 130.031  1.00  0.00    -0.269 OA
BRANCH   9  12
ATOM     12  C   UNL     1     131.996 116.132 130.573  1.00  0.00     0.049 A 
ATOM     13  C   UNL     1     132.706 112.744 127.975  1.00  0.00     0.044 C 
ATOM     14  C   UNL     1     132.446 113.929 128.856  1.00  0.00    -0.050 A 
ATOM     15  C   UNL     1     133.348 114.992 128.901  1.00  0.00     0.005 A 
ATOM     16  C   UNL     1     131.325 113.961 129.691  1.00  0.00     0.014 A 
ATOM     17  C   UNL     1     133.123 116.083 129.747  1.00  0.00     0.027 A 
ATOM     18  C   UNL     1     131.079 115.051 130.549  1.00  0.00     0.006 A 
BRANCH  18  19
ATOM     19  C   UNL     1     129.862 115.030 131.378  1.00  0.00    -0.016 A 
ATOM     20  C   UNL     1     129.843 114.352 132.605  1.00  0.00     0.009 A 
ATOM     21  C   UNL     1     128.705 115.707 130.965  1.00  0.00     0.009 A 
ATOM     22  C   UNL     1     128.695 114.354 133.401  1.00  0.00     0.001 A 
ATOM     23  C   UNL     1     127.557 115.708 131.760  1.00  0.00     0.001 A 
ATOM     24  C   UNL     1     127.554 115.032 132.978  1.00  0.00     0.000 A 
ENDBRANCH  18  19
ENDBRANCH   9  12
ENDBRANCH   1   8
BRANCH   7  25
ATOM     25  C   UNL     1     132.861 121.045 131.285  1.00  0.00     0.417 C 
ATOM     26  F   UNL     1     133.643 119.979 130.925  1.00  0.00    -0.166 F 
ATOM     27  F   UNL     1     132.315 121.472 130.115  1.00  0.00    -0.166 F 
ATOM     28  F   UNL     1     133.739 121.989 131.709  1.00  0.00    -0.166 F 
ENDBRANCH   7  25
BRANCH   4  29
ATOM     29  C   UNL     1     129.004 119.645 135.456  1.00  0.00     0.180 C 
BRANCH  29  30
ATOM     30  S   UNL     1     129.815 118.938 136.881  1.00  0.00     0.182 S 
ATOM     31  O   UNL     1     131.077 118.374 136.432  1.00  0.00    -0.223 OA
ATOM     32  O   UNL     1     129.803 119.912 137.956  1.00  0.00    -0.223 OA
BRANCH  30  33
ATOM     33  C   UNL     1     128.791 117.570 137.373  1.00  0.00     0.067 A 
ATOM     34  C   UNL     1     128.685 116.457 136.533  1.00  0.00     0.020 A 
ATOM     35  C   UNL     1     128.112 117.614 138.595  1.00  0.00     0.020 A 
ATOM     36  C   UNL     1     127.859 115.397 136.905  1.00  0.00     0.001 A 
ATOM     37  C   UNL     1     127.285 116.552 138.955  1.00  0.00     0.001 A 
ATOM     38  C   UNL     1     127.154 115.449 138.110  1.00  0.00     0.000 A 
ENDBRANCH  30  33
ENDBRANCH  29  30
ENDBRANCH   4  29
TORSDOF 7
ENDMDL
MODEL 5
REMARK VINA RESULT:     -12.0      0.838      1.090
REMARK SMILES Cc1ccc(NC(=O)c2c(C(F)(F)F)ccc(CS(=O)(=O)c3ccccc3)c2F)c(-c2ccccc2)c1
REMARK SMILES IDX 9 1 28 2 29 3 17 4 16 5 15 6 10 7 7 8 6 9 8 11 5 12 1 13
REMARK SMILES IDX 2 14 3 15 37 16 4 17 30 18 31 19 32 20 36 21 33 22 35 23
REMARK SMILES IDX 34 24 11 25 12 26 13 27 14 28 18 29 19 30 20 31 21 32 22 33
REMARK SMILES IDX 23 34 27 35 24 36 26 37 25 38
REMARK H PARENT 6 10
REMARK Flexibility Score: inf
ROOT
ATOM      1  C   UNL     1     131.203 119.020 132.100  1.00  0.00     0.088 A 
ATOM      2  C   UNL     1     130.351 118.527 133.098  1.00  0.00     0.140 A 
ATOM      3  F   UNL     1     129.891 117.268 133.031  1.00  0.00    -0.206 F 
ATOM      4  C   UNL     1     129.935 119.308 134.182  1.00  0.00     0.004 A 
ATOM      5  C   UNL     1     130.400 120.621 134.274  1.00  0.00     0.008 A 
ATOM      6  C   UNL     1     131.269 121.125 133.304  1.00  0.00     0.014 A 
ATOM      7  C   UNL     1     131.692 120.337 132.212  1.00  0.00     0.071 A 
ENDROOT
BRANCH   1   8
ATOM      8  C   UNL     1     131.529 118.172 130.915  1.00  0.00     0.259 C 
ATOM      9  N   UNL     1     131.913 116.873 131.182  1.00  0.00    -0.321 N 
ATOM     10  H   UNL     1     131.847 116.564 132.146  1.00  0.00     0.170 HD
ATOM     11  O   UNL     1     131.409 118.676 129.806  1.00  0.00    -0.269 OA
BRANCH   9  12
ATOM     12  C   UNL     1     132.293 115.864 130.261  1.00  0.00     0.049 A 
ATOM     13  C   UNL     1     133.403 112.685 127.542  1.00  0.00     0.044 C 
ATOM     14  C   UNL     1     133.004 113.796 128.466  1.00  0.00    -0.050 A 
ATOM     15  C   UNL     1     133.785 114.947 128.571  1.00  0.00     0.005 A 
ATOM     16  C   UNL     1     131.874 113.672 129.280  1.00  0.00     0.014 A 
ATOM     17  C   UNL     1     133.430 115.971 129.456  1.00  0.00     0.027 A 
ATOM     18  C   UNL     1     131.499 114.692 130.177  1.00  0.00     0.006 A 
BRANCH  18  19
ATOM     19  C   UNL     1     130.280 114.505 130.981  1.00  0.00    -0.016 A 
ATOM     20  C   UNL     1     129.017 114.801 130.448  1.00  0.00     0.009 A 
ATOM     21  C   UNL     1     130.359 114.008 132.291  1.00  0.00     0.009 A 
ATOM     22  C   UNL     1     127.861 114.600 131.205  1.00  0.00     0.001 A 
ATOM     23  C   UNL     1     129.203 113.807 133.048  1.00  0.00     0.001 A 
ATOM     24  C   UNL     1     127.954 114.102 132.503  1.00  0.00     0.000 A 
ENDBRANCH  18  19
ENDBRANCH   9  12
ENDBRANCH   1   8
BRANCH   7  25
ATOM     25  C   UNL     1     132.666 120.934 131.219  1.00  0.00     0.417 C 
ATOM     26  F   UNL     1     133.285 122.045 131.729  1.00  0.00    -0.166 F 
ATOM     27  F   UNL     1     133.689 120.102 130.888  1.00  0.00    -0.166 F 
ATOM     28  F   UNL     1     132.081 121.362 130.071  1.00  0.00    -0.166 F 
ENDBRANCH   7  25
BRANCH   4  29
ATOM     29  C   UNL     1     128.984 118.743 135.204  1.00  0.00     0.180 C 
BRANCH  29  30
ATOM     30  S   UNL     1     129.806 117.570 136.271  1.00  0.00     0.182 S 
ATOM     31  O   UNL     1     129.872 116.303 135.562  1.00  0.00    -0.223 OA
ATOM     32  O   UNL     1     131.023 118.176 136.781  1.00  0.00    -0.223 OA
BRANCH  30  33
ATOM     33  C   UNL     1     128.701 117.330 137.643  1.00  0.00     0.067 A 
ATOM     34  C   UNL     1     127.633 116.437 137.514  1.00  0.00     0.020 A 
ATOM     35  C   UNL     1     128.915 118.025 138.838  1.00  0.00     0.020 A 
ATOM     36  C   UNL     1     126.749 116.270 138.580  1.00  0.00     0.001 A 
ATOM     37  C   UNL     1     128.023 117.856 139.895  1.00  0.00     0.001 A 
ATOM     38  C   UNL     1     126.940 116.985 139.764  1.00  0.00     0.000 A 
ENDBRANCH  30  33
ENDBRANCH  29  30
ENDBRANCH   4  29
TORSDOF 7
ENDMDL
MODEL 6
REMARK VINA RESULT:     -12.0      0.818      1.388
REMARK SMILES Cc1ccc(NC(=O)c2c(C(F)(F)F)ccc(CS(=O)(=O)c3ccccc3)c2F)c(-c2ccccc2)c1
REMARK SMILES IDX 9 1 28 2 29 3 17 4 16 5 15 6 10 7 7 8 6 9 8 11 5 12 1 13
REMARK SMILES IDX 2 14 3 15 37 16 4 17 30 18 31 19 32 20 36 21 33 22 35 23
REMARK SMILES IDX 34 24 11 25 12 26 13 27 14 28 18 29 19 30 20 31 21 32 22 33
REMARK SMILES IDX 23 34 27 35 24 36 26 37 25 38
REMARK H PARENT 6 10
REMARK Flexibility Score: inf
ROOT
ATOM      1  C   UNL     1     131.231 119.035 132.089  1.00  0.00     0.088 A 
ATOM      2  C   UNL     1     130.368 118.563 133.088  1.00  0.00     0.140 A 
ATOM      3  F   UNL     1     129.879 117.316 133.024  1.00  0.00    -0.206 F 
ATOM      4  C   UNL     1     129.971 119.356 134.172  1.00  0.00     0.004 A 
ATOM      5  C   UNL     1     130.466 120.658 134.261  1.00  0.00     0.008 A 
ATOM      6  C   UNL     1     131.346 121.140 133.289  1.00  0.00     0.014 A 
ATOM      7  C   UNL     1     131.750 120.340 132.199  1.00  0.00     0.071 A 
ENDROOT
BRANCH   1   8
ATOM      8  C   UNL     1     131.535 118.177 130.905  1.00  0.00     0.259 C 
ATOM      9  N   UNL     1     131.944 116.887 131.177  1.00  0.00    -0.321 N 
ATOM     10  H   UNL     1     131.909 116.588 132.145  1.00  0.00     0.170 HD
ATOM     11  O   UNL     1     131.379 118.667 129.794  1.00  0.00    -0.269 OA
BRANCH   9  12
ATOM     12  C   UNL     1     132.314 115.872 130.257  1.00  0.00     0.049 A 
ATOM     13  C   UNL     1     133.389 112.677 127.542  1.00  0.00     0.044 C 
ATOM     14  C   UNL     1     133.002 113.794 128.464  1.00  0.00    -0.050 A 
ATOM     15  C   UNL     1     133.794 114.938 128.566  1.00  0.00     0.005 A 
ATOM     16  C   UNL     1     131.871 113.683 129.280  1.00  0.00     0.014 A 
ATOM     17  C   UNL     1     133.451 115.967 129.450  1.00  0.00     0.027 A 
ATOM     18  C   UNL     1     131.508 114.709 130.176  1.00  0.00     0.006 A 
BRANCH  18  19
ATOM     19  C   UNL     1     130.288 114.535 130.982  1.00  0.00    -0.016 A 
ATOM     20  C   UNL     1     129.031 114.881 130.464  1.00  0.00     0.009 A 
ATOM     21  C   UNL     1     130.359 114.001 132.277  1.00  0.00     0.009 A 
ATOM     22  C   UNL     1     127.874 114.694 131.222  1.00  0.00     0.001 A 
ATOM     23  C   UNL     1     129.201 113.813 133.036  1.00  0.00     0.001 A 
ATOM     24  C   UNL     1     127.959 114.158 132.506  1.00  0.00     0.000 A 
ENDBRANCH  18  19
ENDBRANCH   9  12
ENDBRANCH   1   8
BRANCH   7  25
ATOM     25  C   UNL     1     132.737 120.913 131.204  1.00  0.00     0.417 C 
ATOM     26  F   UNL     1     132.113 121.320 130.055  1.00  0.00    -0.166 F 
ATOM     27  F   UNL     1     133.379 122.026 131.650  1.00  0.00    -0.166 F 
ATOM     28  F   UNL     1     133.675 120.024 130.791  1.00  0.00    -0.166 F 
ENDBRANCH   7  25
BRANCH   4  29
ATOM     29  C   UNL     1     129.008 118.814 135.195  1.00  0.00     0.180 C 
BRANCH  29  30
ATOM     30  S   UNL     1     129.795 117.603 136.244  1.00  0.00     0.182 S 
ATOM     31  O   UNL     1     129.853 116.353 135.504  1.00  0.00    -0.223 OA
ATOM     32  O   UNL     1     131.013 118.177 136.788  1.00  0.00    -0.223 OA
BRANCH  30  33
ATOM     33  C   UNL     1     128.665 117.346 137.593  1.00  0.00     0.067 A 
ATOM     34  C   UNL     1     128.857 118.044 138.789  1.00  0.00     0.020 A 
ATOM     35  C   UNL     1     127.593 116.462 137.443  1.00  0.00     0.020 A 
ATOM     36  C   UNL     1     127.989 117.822 139.857  1.00  0.00     0.001 A 
ATOM     37  C   UNL     1     126.733 116.242 138.518  1.00  0.00     0.001 A 
ATOM     38  C   UNL     1     126.934 116.916 139.723  1.00  0.00     0.000 A 
ENDBRANCH  30  33
ENDBRANCH  29  30
ENDBRANCH   4  29
TORSDOF 7
ENDMDL
MODEL 7
REMARK VINA RESULT:     -11.9      1.031      1.388
REMARK SMILES Cc1ccc(NC(=O)c2c(C(F)(F)F)ccc(CS(=O)(=O)c3ccccc3)c2F)c(-c2ccccc2)c1
REMARK SMILES IDX 9 1 28 2 29 3 17 4 16 5 15 6 10 7 7 8 6 9 8 11 5 12 1 13
REMARK SMILES IDX 2 14 3 15 37 16 4 17 30 18 31 19 32 20 36 21 33 22 35 23
REMARK SMILES IDX 34 24 11 25 12 26 13 27 14 28 18 29 19 30 20 31 21 32 22 33
REMARK SMILES IDX 23 34 27 35 24 36 26 37 25 38
REMARK H PARENT 6 10
REMARK Flexibility Score: inf
ROOT
ATOM      1  C   UNL     1     131.420 119.431 132.588  1.00  0.00     0.088 A 
ATOM      2  C   UNL     1     130.956 119.019 133.846  1.00  0.00     0.140 A 
ATOM      3  F   UNL     1     130.526 117.761 134.028  1.00  0.00    -0.206 F 
ATOM      4  C   UNL     1     130.905 119.884 134.946  1.00  0.00     0.004 A 
ATOM      5  C   UNL     1     131.347 121.197 134.781  1.00  0.00     0.008 A 
ATOM      6  C   UNL     1     131.835 121.621 133.543  1.00  0.00     0.014 A 
ATOM      7  C   UNL     1     131.890 120.750 132.434  1.00  0.00     0.071 A 
ENDROOT
BRANCH   1   8
ATOM      8  C   UNL     1     131.352 118.492 131.428  1.00  0.00     0.259 C 
ATOM      9  N   UNL     1     131.906 117.243 131.623  1.00  0.00    -0.321 N 
ATOM     10  H   UNL     1     132.222 117.021 132.561  1.00  0.00     0.170 HD
ATOM     11  O   UNL     1     130.797 118.886 130.412  1.00  0.00    -0.269 OA
BRANCH   9  12
ATOM     12  C   UNL     1     131.999 116.171 130.699  1.00  0.00     0.049 A 
ATOM     13  C   UNL     1     132.221 112.814 127.975  1.00  0.00     0.044 C 
ATOM     14  C   UNL     1     132.130 113.990 128.901  1.00  0.00    -0.050 A 
ATOM     15  C   UNL     1     133.136 114.957 128.921  1.00  0.00     0.005 A 
ATOM     16  C   UNL     1     131.066 114.106 129.800  1.00  0.00     0.014 A 
ATOM     17  C   UNL     1     133.068 116.038 129.807  1.00  0.00     0.027 A 
ATOM     18  C   UNL     1     130.979 115.187 130.700  1.00  0.00     0.006 A 
BRANCH  18  19
ATOM     19  C   UNL     1     129.814 115.259 131.598  1.00  0.00    -0.016 A 
ATOM     20  C   UNL     1     129.843 114.647 132.860  1.00  0.00     0.009 A 
ATOM     21  C   UNL     1     128.660 115.959 131.216  1.00  0.00     0.009 A 
ATOM     22  C   UNL     1     128.746 114.737 133.719  1.00  0.00     0.001 A 
ATOM     23  C   UNL     1     127.563 116.049 132.075  1.00  0.00     0.001 A 
ATOM     24  C   UNL     1     127.608 115.439 133.327  1.00  0.00     0.000 A 
ENDBRANCH  18  19
ENDBRANCH   9  12
ENDBRANCH   1   8
BRANCH   7  25
ATOM     25  C   UNL     1     132.468 121.265 131.133  1.00  0.00     0.417 C 
ATOM     26  F   UNL     1     132.983 122.526 131.277  1.00  0.00    -0.166 F 
ATOM     27  F   UNL     1     133.510 120.526 130.668  1.00  0.00    -0.166 F 
ATOM     28  F   UNL     1     131.553 121.377 130.136  1.00  0.00    -0.166 F 
ENDBRANCH   7  25
BRANCH   4  29
ATOM     29  C   UNL     1     130.359 119.403 136.264  1.00  0.00     0.180 C 
BRANCH  29  30
ATOM     30  S   UNL     1     128.602 119.702 136.382  1.00  0.00     0.182 S 
ATOM     31  O   UNL     1     128.408 120.822 137.287  1.00  0.00    -0.223 OA
ATOM     32  O   UNL     1     128.046 119.753 135.042  1.00  0.00    -0.223 OA
BRANCH  30  33
ATOM     33  C   UNL     1     127.935 118.267 137.193  1.00  0.00     0.067 A 
ATOM     34  C   UNL     1     127.237 117.318 136.441  1.00  0.00     0.020 A 
ATOM     35  C   UNL     1     128.125 118.095 138.568  1.00  0.00     0.020 A 
ATOM     36  C   UNL     1     126.689 116.207 137.082  1.00  0.00     0.001 A 
ATOM     37  C   UNL     1     127.569 116.985 139.200  1.00  0.00     0.001 A 
ATOM     38  C   UNL     1     126.848 116.046 138.460  1.00  0.00     0.000 A 
ENDBRANCH  30  33
ENDBRANCH  29  30
ENDBRANCH   4  29
TORSDOF 7
ENDMDL
MODEL 8
REMARK VINA RESULT:     -11.9      1.041      1.350
REMARK SMILES Cc1ccc(NC(=O)c2c(C(F)(F)F)ccc(CS(=O)(=O)c3ccccc3)c2F)c(-c2ccccc2)c1
REMARK SMILES IDX 9 1 28 2 29 3 17 4 16 5 15 6 10 7 7 8 6 9 8 11 5 12 1 13
REMARK SMILES IDX 2 14 3 15 37 16 4 17 30 18 31 19 32 20 36 21 33 22 35 23
REMARK SMILES IDX 34 24 11 25 12 26 13 27 14 28 18 29 19 30 20 31 21 32 22 33
REMARK SMILES IDX 23 34 27 35 24 36 26 37 25 38
REMARK H PARENT 6 10
REMARK Flexibility Score: inf
ROOT
ATOM      1  C   UNL     1     131.434 119.475 132.582  1.00  0.00     0.088 A 
ATOM      2  C   UNL     1     130.966 119.072 133.841  1.00  0.00     0.140 A 
ATOM      3  F   UNL     1     130.526 117.818 134.027  1.00  0.00    -0.206 F 
ATOM      4  C   UNL     1     130.922 119.940 134.938  1.00  0.00     0.004 A 
ATOM      5  C   UNL     1     131.375 121.250 134.769  1.00  0.00     0.008 A 
ATOM      6  C   UNL     1     131.868 121.665 133.530  1.00  0.00     0.014 A 
ATOM      7  C   UNL     1     131.917 120.789 132.424  1.00  0.00     0.071 A 
ENDROOT
BRANCH   1   8
ATOM      8  C   UNL     1     131.360 118.533 131.425  1.00  0.00     0.259 C 
ATOM      9  N   UNL     1     131.909 117.282 131.622  1.00  0.00    -0.321 N 
ATOM     10  H   UNL     1     132.226 117.062 132.560  1.00  0.00     0.170 HD
ATOM     11  O   UNL     1     130.804 118.927 130.409  1.00  0.00    -0.269 OA
BRANCH   9  12
ATOM     12  C   UNL     1     131.995 116.207 130.701  1.00  0.00     0.049 A 
ATOM     13  C   UNL     1     132.196 112.842 127.987  1.00  0.00     0.044 C 
ATOM     14  C   UNL     1     132.112 114.020 128.909  1.00  0.00    -0.050 A 
ATOM     15  C   UNL     1     133.119 114.987 128.920  1.00  0.00     0.005 A 
ATOM     16  C   UNL     1     131.054 114.140 129.816  1.00  0.00     0.014 A 
ATOM     17  C   UNL     1     133.058 116.070 129.803  1.00  0.00     0.027 A 
ATOM     18  C   UNL     1     130.974 115.224 130.712  1.00  0.00     0.006 A 
BRANCH  18  19
ATOM     19  C   UNL     1     129.815 115.300 131.618  1.00  0.00    -0.016 A 
ATOM     20  C   UNL     1     128.656 115.995 131.242  1.00  0.00     0.009 A 
ATOM     21  C   UNL     1     129.842 114.661 132.866  1.00  0.00     0.009 A 
ATOM     22  C   UNL     1     127.550 116.045 132.093  1.00  0.00     0.001 A 
ATOM     23  C   UNL     1     128.736 114.711 133.717  1.00  0.00     0.001 A 
ATOM     24  C   UNL     1     127.590 115.403 133.328  1.00  0.00     0.000 A 
ENDBRANCH  18  19
ENDBRANCH   9  12
ENDBRANCH   1   8
BRANCH   7  25
ATOM     25  C   UNL     1     132.500 121.295 131.122  1.00  0.00     0.417 C 
ATOM     26  F   UNL     1     133.014 122.558 131.259  1.00  0.00    -0.166 F 
ATOM     27  F   UNL     1     133.545 120.554 130.667  1.00  0.00    -0.166 F 
ATOM     28  F   UNL     1     131.590 121.399 130.120  1.00  0.00    -0.166 F 
ENDBRANCH   7  25
BRANCH   4  29
ATOM     29  C   UNL     1     130.370 119.468 136.257  1.00  0.00     0.180 C 
BRANCH  29  30
ATOM     30  S   UNL     1     128.610 119.752 136.358  1.00  0.00     0.182 S 
ATOM     31  O   UNL     1     128.400 120.895 137.231  1.00  0.00    -0.223 OA
ATOM     32  O   UNL     1     128.060 119.759 135.015  1.00  0.00    -0.223 OA
BRANCH  30  33
ATOM     33  C   UNL     1     127.955 118.334 137.208  1.00  0.00     0.067 A 
ATOM     34  C   UNL     1     128.168 118.201 138.583  1.00  0.00     0.020 A 
ATOM     35  C   UNL     1     127.226 117.374 136.499  1.00  0.00     0.020 A 
ATOM     36  C   UNL     1     127.680 117.075 139.245  1.00  0.00     0.001 A 
ATOM     37  C   UNL     1     126.746 116.249 137.167  1.00  0.00     0.001 A 
ATOM     38  C   UNL     1     126.977 116.097 138.536  1.00  0.00     0.000 A 
ENDBRANCH  30  33
ENDBRANCH  29  30
ENDBRANCH   4  29
TORSDOF 7
ENDMDL
MODEL 9
REMARK VINA RESULT:     -11.8      1.014      1.246
REMARK SMILES Cc1ccc(NC(=O)c2c(C(F)(F)F)ccc(CS(=O)(=O)c3ccccc3)c2F)c(-c2ccccc2)c1
REMARK SMILES IDX 9 1 28 2 29 3 17 4 16 5 15 6 10 7 7 8 6 9 8 11 5 12 1 13
REMARK SMILES IDX 2 14 3 15 37 16 4 17 30 18 31 19 32 20 36 21 33 22 35 23
REMARK SMILES IDX 34 24 11 25 12 26 13 27 14 28 18 29 19 30 20 31 21 32 22 33
REMARK SMILES IDX 23 34 27 35 24 36 26 37 25 38
REMARK H PARENT 6 10
REMARK Flexibility Score: inf
ROOT
ATOM      1  C   UNL     1     131.414 119.428 132.582  1.00  0.00     0.088 A 
ATOM      2  C   UNL     1     130.955 119.006 133.838  1.00  0.00     0.140 A 
ATOM      3  F   UNL     1     130.537 117.744 134.014  1.00  0.00    -0.206 F 
ATOM      4  C   UNL     1     130.899 119.864 134.943  1.00  0.00     0.004 A 
ATOM      5  C   UNL     1     131.329 121.182 134.785  1.00  0.00     0.008 A 
ATOM      6  C   UNL     1     131.812 121.617 133.548  1.00  0.00     0.014 A 
ATOM      7  C   UNL     1     131.873 120.752 132.435  1.00  0.00     0.071 A 
ENDROOT
BRANCH   1   8
ATOM      8  C   UNL     1     131.353 118.495 131.417  1.00  0.00     0.259 C 
ATOM      9  N   UNL     1     131.900 117.243 131.611  1.00  0.00    -0.321 N 
ATOM     10  H   UNL     1     132.206 117.015 132.551  1.00  0.00     0.170 HD
ATOM     11  O   UNL     1     130.808 118.897 130.398  1.00  0.00    -0.269 OA
BRANCH   9  12
ATOM     12  C   UNL     1     131.996 116.175 130.682  1.00  0.00     0.049 A 
ATOM     13  C   UNL     1     132.229 112.830 127.945  1.00  0.00     0.044 C 
ATOM     14  C   UNL     1     132.135 114.001 128.876  1.00  0.00    -0.050 A 
ATOM     15  C   UNL     1     133.137 114.972 128.901  1.00  0.00     0.005 A 
ATOM     16  C   UNL     1     131.069 114.111 129.775  1.00  0.00     0.014 A 
ATOM     17  C   UNL     1     133.066 116.048 129.791  1.00  0.00     0.027 A 
ATOM     18  C   UNL     1     130.978 115.188 130.679  1.00  0.00     0.006 A 
BRANCH  18  19
ATOM     19  C   UNL     1     129.813 115.253 131.576  1.00  0.00    -0.016 A 
ATOM     20  C   UNL     1     128.650 115.937 131.192  1.00  0.00     0.009 A 
ATOM     21  C   UNL     1     129.837 114.614 132.825  1.00  0.00     0.009 A 
ATOM     22  C   UNL     1     127.538 115.977 132.035  1.00  0.00     0.001 A 
ATOM     23  C   UNL     1     128.724 114.654 133.669  1.00  0.00     0.001 A 
ATOM     24  C   UNL     1     127.575 115.335 133.271  1.00  0.00     0.000 A 
ENDBRANCH  18  19
ENDBRANCH   9  12
ENDBRANCH   1   8
BRANCH   7  25
ATOM     25  C   UNL     1     132.445 121.279 131.136  1.00  0.00     0.417 C 
ATOM     26  F   UNL     1     133.490 120.510 130.698  1.00  0.00    -0.166 F 
ATOM     27  F   UNL     1     131.560 121.263 130.103  1.00  0.00    -0.166 F 
ATOM     28  F   UNL     1     132.956 122.533 131.233  1.00  0.00    -0.166 F 
ENDBRANCH   7  25
BRANCH   4  29
ATOM     29  C   UNL     1     130.358 119.371 136.259  1.00  0.00     0.180 C 
BRANCH  29  30
ATOM     30  S   UNL     1     128.606 119.689 136.396  1.00  0.00     0.182 S 
ATOM     31  O   UNL     1     128.431 120.784 137.335  1.00  0.00    -0.223 OA
ATOM     32  O   UNL     1     128.043 119.786 135.061  1.00  0.00    -0.223 OA
BRANCH  30  33
ATOM     33  C   UNL     1     127.926 118.239 137.168  1.00  0.00     0.067 A 
ATOM     34  C   UNL     1     127.282 117.280 136.379  1.00  0.00     0.020 A 
ATOM     35  C   UNL     1     128.051 118.064 138.550  1.00  0.00     0.020 A 
ATOM     36  C   UNL     1     126.723 116.157 136.988  1.00  0.00     0.001 A 
ATOM     37  C   UNL     1     127.485 116.940 139.150  1.00  0.00     0.001 A 
ATOM     38  C   UNL     1     126.818 115.993 138.372  1.00  0.00     0.000 A 
ENDBRANCH  30  33
ENDBRANCH  29  30
ENDBRANCH   4  29
TORSDOF 7
ENDMDL
