MODEL 1
REMARK VINA RESULT:     -13.0      0.000      0.000
REMARK SMILES NC(=O)Cc1ccc(NC(=O)c2c(C(F)(F)F)ccc(CS(=O)(=O)c3ccccc3)c2F)c(-c2ccccc2)c1
REMARK SMILES IDX 12 1 31 2 32 3 20 4 19 5 18 6 13 7 10 8 9 9 11 11 8 12 5 13
REMARK SMILES IDX 6 14 40 15 7 16 33 17 4 18 2 19 1 20 3 23 34 24 35 25 39 26
REMARK SMILES IDX 36 27 38 28 37 29 14 30 15 31 16 32 17 33 21 34 22 35 23 36
REMARK SMILES IDX 24 37 25 38 26 39 30 40 27 41 29 42 28 43
REMARK H PARENT 9 10 1 21 1 22
REMARK Flexibility Score: inf
ROOT
ATOM      1  C   UNL     1     131.097 119.802 132.699  1.00  0.00     0.088 A 
ATOM      2  C   UNL     1     130.254 119.522 133.779  1.00  0.00     0.140 A 
ATOM      3  F   UNL     1     129.511 118.404 133.780  1.00  0.00    -0.206 F 
ATOM      4  C   UNL     1     130.143 120.398 134.862  1.00  0.00     0.004 A 
ATOM      5  C   UNL     1     130.905 121.573 134.855  1.00  0.00     0.008 A 
ATOM      6  C   UNL     1     131.746 121.862 133.776  1.00  0.00     0.014 A 
ATOM      7  C   UNL     1     131.856 120.982 132.683  1.00  0.00     0.071 A 
ENDROOT
BRANCH   1   8
ATOM      8  C   UNL     1     131.119 118.870 131.554  1.00  0.00     0.259 C 
ATOM      9  N   UNL     1     131.607 117.615 131.844  1.00  0.00    -0.321 N 
ATOM     10  H   UNL     1     131.939 117.459 132.790  1.00  0.00     0.170 HD
ATOM     11  O   UNL     1     130.734 119.305 130.477  1.00  0.00    -0.269 OA
BRANCH   9  12
ATOM     12  C   UNL     1     131.723 116.502 130.971  1.00  0.00     0.049 A 
ATOM     13  C   UNL     1     131.915 114.252 129.265  1.00  0.00    -0.038 A 
ATOM     14  C   UNL     1     132.877 115.263 129.221  1.00  0.00     0.006 A 
ATOM     15  C   UNL     1     130.849 114.377 130.165  1.00  0.00     0.015 A 
ATOM     16  C   UNL     1     132.783 116.373 130.065  1.00  0.00     0.027 A 
ATOM     17  C   UNL     1     130.734 115.490 131.022  1.00  0.00     0.006 A 
BRANCH  13  18
ATOM     18  C   UNL     1     132.027 113.038 128.374  1.00  0.00     0.135 C 
BRANCH  18  19
ATOM     19  C   UNL     1     133.457 112.623 128.088  1.00  0.00     0.221 C 
ATOM     20  N   UNL     1     133.854 112.688 126.782  1.00  0.00    -0.369 N 
ATOM     21  H   UNL     1     133.383 113.308 126.136  1.00  0.00     0.159 HD
ATOM     22  H   UNL     1     134.834 112.504 126.609  1.00  0.00     0.159 HD
ATOM     23  O   UNL     1     134.218 112.194 128.950  1.00  0.00    -0.275 OA
ENDBRANCH  18  19
ENDBRANCH  13  18
BRANCH  17  24
ATOM     24  C   UNL     1     129.591 115.543 131.950  1.00  0.00    -0.016 A 
ATOM     25  C   UNL     1     129.716 115.095 133.274  1.00  0.00     0.009 A 
ATOM     26  C   UNL     1     128.344 116.024 131.519  1.00  0.00     0.009 A 
ATOM     27  C   UNL     1     128.619 115.108 134.137  1.00  0.00     0.001 A 
ATOM     28  C   UNL     1     127.249 116.043 132.384  1.00  0.00     0.001 A 
ATOM     29  C   UNL     1     127.386 115.582 133.691  1.00  0.00     0.000 A 
ENDBRANCH  17  24
ENDBRANCH   9  12
ENDBRANCH   1   8
BRANCH   7  30
ATOM     30  C   UNL     1     132.775 121.317 131.533  1.00  0.00     0.417 C 
ATOM     31  F   UNL     1     132.125 121.837 130.459  1.00  0.00    -0.166 F 
ATOM     32  F   UNL     1     133.702 122.262 131.879  1.00  0.00    -0.166 F 
ATOM     33  F   UNL     1     133.506 120.259 131.093  1.00  0.00    -0.166 F 
ENDBRANCH   7  30
BRANCH   4  34
ATOM     34  C   UNL     1     129.235 120.066 136.015  1.00  0.00     0.180 C 
BRANCH  34  35
ATOM     35  S   UNL     1     130.066 118.902 137.090  1.00  0.00     0.182 S 
ATOM     36  O   UNL     1     130.232 119.515 138.396  1.00  0.00    -0.223 OA
ATOM     37  O   UNL     1     131.200 118.323 136.394  1.00  0.00    -0.223 OA
BRANCH  35  38
ATOM     38  C   UNL     1     128.854 117.612 137.265  1.00  0.00     0.067 A 
ATOM     39  C   UNL     1     127.519 117.880 136.947  1.00  0.00     0.020 A 
ATOM     40  C   UNL     1     129.249 116.340 137.689  1.00  0.00     0.020 A 
ATOM     41  C   UNL     1     126.568 116.868 137.082  1.00  0.00     0.001 A 
ATOM     42  C   UNL     1     128.291 115.336 137.822  1.00  0.00     0.001 A 
ATOM     43  C   UNL     1     126.954 115.600 137.521  1.00  0.00     0.000 A 
ENDBRANCH  35  38
ENDBRANCH  34  35
ENDBRANCH   4  34
TORSDOF 9
ENDMDL
MODEL 2
REMARK VINA RESULT:     -12.7      0.901      1.248
REMARK SMILES NC(=O)Cc1ccc(NC(=O)c2c(C(F)(F)F)ccc(CS(=O)(=O)c3ccccc3)c2F)c(-c2ccccc2)c1
REMARK SMILES IDX 12 1 31 2 32 3 20 4 19 5 18 6 13 7 10 8 9 9 11 11 8 12 5 13
REMARK SMILES IDX 6 14 40 15 7 16 33 17 4 18 2 19 1 20 3 23 34 24 35 25 39 26
REMARK SMILES IDX 36 27 38 28 37 29 14 30 15 31 16 32 17 33 21 34 22 35 23 36
REMARK SMILES IDX 24 37 25 38 26 39 30 40 27 41 29 42 28 43
REMARK H PARENT 9 10 1 21 1 22
REMARK Flexibility Score: inf
ROOT
ATOM      1  C   UNL     1     131.053 119.656 132.378  1.00  0.00     0.088 A 
ATOM      2  C   UNL     1     130.136 119.272 133.361  1.00  0.00     0.140 A 
ATOM      3  F   UNL     1     129.503 118.093 133.267  1.00  0.00    -0.206 F 
ATOM      4  C   UNL     1     129.838 120.106 134.443  1.00  0.00     0.004 A 
ATOM      5  C   UNL     1     130.486 121.343 134.534  1.00  0.00     0.008 A 
ATOM      6  C   UNL     1     131.401 121.736 133.552  1.00  0.00     0.014 A 
ATOM      7  C   UNL     1     131.700 120.899 132.461  1.00  0.00     0.071 A 
ENDROOT
BRANCH   1   8
ATOM      8  C   UNL     1     131.274 118.761 131.225  1.00  0.00     0.259 C 
ATOM      9  N   UNL     1     131.817 117.536 131.543  1.00  0.00    -0.321 N 
ATOM     10  H   UNL     1     132.050 117.377 132.519  1.00  0.00     0.170 HD
ATOM     11  O   UNL     1     130.984 119.198 130.119  1.00  0.00    -0.269 OA
BRANCH   9  12
ATOM     12  C   UNL     1     132.114 116.460 130.667  1.00  0.00     0.049 A 
ATOM     13  C   UNL     1     132.666 114.278 128.951  1.00  0.00    -0.038 A 
ATOM     14  C   UNL     1     133.529 115.374 129.009  1.00  0.00     0.006 A 
ATOM     15  C   UNL     1     131.519 114.282 129.754  1.00  0.00     0.015 A 
ATOM     16  C   UNL     1     133.256 116.451 129.858  1.00  0.00     0.027 A 
ATOM     17  C   UNL     1     131.224 115.359 130.614  1.00  0.00     0.006 A 
BRANCH  13  18
ATOM     18  C   UNL     1     132.969 113.100 128.056  1.00  0.00     0.135 C 
BRANCH  18  19
ATOM     19  C   UNL     1     134.398 112.603 128.169  1.00  0.00     0.221 C 
ATOM     20  N   UNL     1     134.820 112.262 129.423  1.00  0.00    -0.369 N 
ATOM     21  H   UNL     1     134.149 111.997 130.133  1.00  0.00     0.159 HD
ATOM     22  H   UNL     1     135.738 111.840 129.480  1.00  0.00     0.159 HD
ATOM     23  O   UNL     1     135.170 112.555 127.217  1.00  0.00    -0.275 OA
ENDBRANCH  18  19
ENDBRANCH  13  18
BRANCH  17  24
ATOM     24  C   UNL     1     130.004 115.284 131.437  1.00  0.00    -0.016 A 
ATOM     25  C   UNL     1     128.804 115.869 131.002  1.00  0.00     0.009 A 
ATOM     26  C   UNL     1     130.024 114.644 132.686  1.00  0.00     0.009 A 
ATOM     27  C   UNL     1     127.663 115.833 131.804  1.00  0.00     0.001 A 
ATOM     28  C   UNL     1     128.880 114.602 133.485  1.00  0.00     0.001 A 
ATOM     29  C   UNL     1     127.701 115.200 133.045  1.00  0.00     0.000 A 
ENDBRANCH  17  24
ENDBRANCH   9  12
ENDBRANCH   1   8
BRANCH   7  30
ATOM     30  C   UNL     1     132.694 121.346 131.416  1.00  0.00     0.417 C 
ATOM     31  F   UNL     1     132.110 121.870 130.307  1.00  0.00    -0.166 F 
ATOM     32  F   UNL     1     133.517 122.333 131.884  1.00  0.00    -0.166 F 
ATOM     33  F   UNL     1     133.534 120.359 131.005  1.00  0.00    -0.166 F 
ENDBRANCH   7  30
BRANCH   4  34
ATOM     34  C   UNL     1     128.854 119.662 135.492  1.00  0.00     0.180 C 
BRANCH  34  35
ATOM     35  S   UNL     1     129.755 118.989 136.883  1.00  0.00     0.182 S 
ATOM     36  O   UNL     1     129.750 119.967 137.956  1.00  0.00    -0.223 OA
ATOM     37  O   UNL     1     130.999 118.404 136.419  1.00  0.00    -0.223 OA
BRANCH  35  38
ATOM     38  C   UNL     1     128.712 117.642 137.396  1.00  0.00     0.067 A 
ATOM     39  C   UNL     1     128.565 116.533 136.558  1.00  0.00     0.020 A 
ATOM     40  C   UNL     1     128.074 117.692 138.639  1.00  0.00     0.020 A 
ATOM     41  C   UNL     1     127.748 115.475 136.960  1.00  0.00     0.001 A 
ATOM     42  C   UNL     1     127.260 116.630 139.032  1.00  0.00     0.001 A 
ATOM     43  C   UNL     1     127.096 115.526 138.194  1.00  0.00     0.000 A 
ENDBRANCH  35  38
ENDBRANCH  34  35
ENDBRANCH   4  34
TORSDOF 9
ENDMDL
MODEL 3
REMARK VINA RESULT:     -12.7      0.998      1.199
REMARK SMILES NC(=O)Cc1ccc(NC(=O)c2c(C(F)(F)F)ccc(CS(=O)(=O)c3ccccc3)c2F)c(-c2ccccc2)c1
REMARK SMILES IDX 12 1 31 2 32 3 20 4 19 5 18 6 13 7 10 8 9 9 11 11 8 12 5 13
REMARK SMILES IDX 6 14 40 15 7 16 33 17 4 18 2 19 1 20 3 23 34 24 35 25 39 26
REMARK SMILES IDX 36 27 38 28 37 29 14 30 15 31 16 32 17 33 21 34 22 35 23 36
REMARK SMILES IDX 24 37 25 38 26 39 30 40 27 41 29 42 28 43
REMARK H PARENT 9 10 1 21 1 22
REMARK Flexibility Score: inf
ROOT
ATOM      1  C   UNL     1     130.921 119.598 132.361  1.00  0.00     0.088 A 
ATOM      2  C   UNL     1     129.901 119.230 133.245  1.00  0.00     0.140 A 
ATOM      3  F   UNL     1     129.227 118.086 133.055  1.00  0.00    -0.206 F 
ATOM      4  C   UNL     1     129.543 120.046 134.322  1.00  0.00     0.004 A 
ATOM      5  C   UNL     1     130.235 121.248 134.512  1.00  0.00     0.008 A 
ATOM      6  C   UNL     1     131.253 121.624 133.629  1.00  0.00     0.014 A 
ATOM      7  C   UNL     1     131.612 120.806 132.542  1.00  0.00     0.071 A 
ENDROOT
BRANCH   1   8
ATOM      8  C   UNL     1     131.206 118.726 131.203  1.00  0.00     0.259 C 
ATOM      9  N   UNL     1     131.709 117.486 131.528  1.00  0.00    -0.321 N 
ATOM     10  H   UNL     1     131.874 117.301 132.512  1.00  0.00     0.170 HD
ATOM     11  O   UNL     1     130.996 119.194 130.092  1.00  0.00    -0.269 OA
BRANCH   9  12
ATOM     12  C   UNL     1     132.049 116.426 130.647  1.00  0.00     0.049 A 
ATOM     13  C   UNL     1     132.688 114.275 128.923  1.00  0.00    -0.038 A 
ATOM     14  C   UNL     1     133.508 115.403 128.987  1.00  0.00     0.006 A 
ATOM     15  C   UNL     1     131.540 114.231 129.723  1.00  0.00     0.015 A 
ATOM     16  C   UNL     1     133.192 116.465 129.841  1.00  0.00     0.027 A 
ATOM     17  C   UNL     1     131.202 115.292 130.588  1.00  0.00     0.006 A 
BRANCH  13  18
ATOM     18  C   UNL     1     133.038 113.114 128.023  1.00  0.00     0.135 C 
BRANCH  18  19
ATOM     19  C   UNL     1     134.468 112.632 128.181  1.00  0.00     0.221 C 
ATOM     20  N   UNL     1     134.852 112.288 129.446  1.00  0.00    -0.369 N 
ATOM     21  H   UNL     1     134.161 112.010 130.132  1.00  0.00     0.159 HD
ATOM     22  H   UNL     1     135.772 111.877 129.531  1.00  0.00     0.159 HD
ATOM     23  O   UNL     1     135.272 112.600 127.255  1.00  0.00    -0.275 OA
ENDBRANCH  18  19
ENDBRANCH  13  18
BRANCH  17  24
ATOM     24  C   UNL     1     129.985 115.166 131.408  1.00  0.00    -0.016 A 
ATOM     25  C   UNL     1     130.029 114.572 132.679  1.00  0.00     0.009 A 
ATOM     26  C   UNL     1     128.748 115.620 130.922  1.00  0.00     0.009 A 
ATOM     27  C   UNL     1     128.865 114.417 133.433  1.00  0.00     0.001 A 
ATOM     28  C   UNL     1     127.586 115.472 131.681  1.00  0.00     0.001 A 
ATOM     29  C   UNL     1     127.644 114.866 132.934  1.00  0.00     0.000 A 
ENDBRANCH  17  24
ENDBRANCH   9  12
ENDBRANCH   1   8
BRANCH   7  30
ATOM     30  C   UNL     1     132.716 121.235 131.607  1.00  0.00     0.417 C 
ATOM     31  F   UNL     1     133.489 120.203 131.179  1.00  0.00    -0.166 F 
ATOM     32  F   UNL     1     132.226 121.809 130.467  1.00  0.00    -0.166 F 
ATOM     33  F   UNL     1     133.547 122.171 132.137  1.00  0.00    -0.166 F 
ENDBRANCH   7  30
BRANCH   4  34
ATOM     34  C   UNL     1     128.448 119.620 135.263  1.00  0.00     0.180 C 
BRANCH  34  35
ATOM     35  S   UNL     1     129.180 119.139 136.823  1.00  0.00     0.182 S 
ATOM     36  O   UNL     1     128.942 120.195 137.791  1.00  0.00    -0.223 OA
ATOM     37  O   UNL     1     130.520 118.631 136.595  1.00  0.00    -0.223 OA
BRANCH  35  38
ATOM     38  C   UNL     1     128.176 117.751 137.302  1.00  0.00     0.067 A 
ATOM     39  C   UNL     1     127.676 116.895 136.316  1.00  0.00     0.020 A 
ATOM     40  C   UNL     1     127.921 117.513 138.656  1.00  0.00     0.020 A 
ATOM     41  C   UNL     1     126.890 115.805 136.691  1.00  0.00     0.001 A 
ATOM     42  C   UNL     1     127.134 116.421 139.021  1.00  0.00     0.001 A 
ATOM     43  C   UNL     1     126.619 115.571 138.041  1.00  0.00     0.000 A 
ENDBRANCH  35  38
ENDBRANCH  34  35
ENDBRANCH   4  34
TORSDOF 9
ENDMDL
MODEL 4
REMARK VINA RESULT:     -12.7      0.890      1.084
REMARK SMILES NC(=O)Cc1ccc(NC(=O)c2c(C(F)(F)F)ccc(CS(=O)(=O)c3ccccc3)c2F)c(-c2ccccc2)c1
REMARK SMILES IDX 12 1 31 2 32 3 20 4 19 5 18 6 13 7 10 8 9 9 11 11 8 12 5 13
REMARK SMILES IDX 6 14 40 15 7 16 33 17 4 18 2 19 1 20 3 23 34 24 35 25 39 26
REMARK SMILES IDX 36 27 38 28 37 29 14 30 15 31 16 32 17 33 21 34 22 35 23 36
REMARK SMILES IDX 24 37 25 38 26 39 30 40 27 41 29 42 28 43
REMARK H PARENT 9 10 1 21 1 22
REMARK Flexibility Score: inf
ROOT
ATOM      1  C   UNL     1     131.048 119.670 132.375  1.00  0.00     0.088 A 
ATOM      2  C   UNL     1     130.137 119.287 133.364  1.00  0.00     0.140 A 
ATOM      3  F   UNL     1     129.504 118.108 133.276  1.00  0.00    -0.206 F 
ATOM      4  C   UNL     1     129.844 120.123 134.446  1.00  0.00     0.004 A 
ATOM      5  C   UNL     1     130.491 121.361 134.531  1.00  0.00     0.008 A 
ATOM      6  C   UNL     1     131.400 121.753 133.543  1.00  0.00     0.014 A 
ATOM      7  C   UNL     1     131.693 120.914 132.451  1.00  0.00     0.071 A 
ENDROOT
BRANCH   1   8
ATOM      8  C   UNL     1     131.263 118.773 131.222  1.00  0.00     0.259 C 
ATOM      9  N   UNL     1     131.803 117.547 131.541  1.00  0.00    -0.321 N 
ATOM     10  H   UNL     1     132.038 117.389 132.516  1.00  0.00     0.170 HD
ATOM     11  O   UNL     1     130.971 119.210 130.117  1.00  0.00    -0.269 OA
BRANCH   9  12
ATOM     12  C   UNL     1     132.095 116.469 130.665  1.00  0.00     0.049 A 
ATOM     13  C   UNL     1     132.637 114.283 128.951  1.00  0.00    -0.038 A 
ATOM     14  C   UNL     1     133.493 115.385 128.991  1.00  0.00     0.006 A 
ATOM     15  C   UNL     1     131.502 114.283 129.771  1.00  0.00     0.015 A 
ATOM     16  C   UNL     1     133.225 116.464 129.839  1.00  0.00     0.027 A 
ATOM     17  C   UNL     1     131.212 115.361 130.631  1.00  0.00     0.006 A 
BRANCH  13  18
ATOM     18  C   UNL     1     132.935 113.103 128.057  1.00  0.00     0.135 C 
BRANCH  18  19
ATOM     19  C   UNL     1     134.365 112.606 128.162  1.00  0.00     0.221 C 
ATOM     20  N   UNL     1     134.792 112.262 129.414  1.00  0.00    -0.369 N 
ATOM     21  H   UNL     1     134.124 111.993 130.126  1.00  0.00     0.159 HD
ATOM     22  H   UNL     1     135.711 111.840 129.465  1.00  0.00     0.159 HD
ATOM     23  O   UNL     1     135.133 112.563 127.207  1.00  0.00    -0.275 OA
ENDBRANCH  18  19
ENDBRANCH  13  18
BRANCH  17  24
ATOM     24  C   UNL     1     130.005 115.282 131.472  1.00  0.00    -0.016 A 
ATOM     25  C   UNL     1     130.023 114.593 132.695  1.00  0.00     0.009 A 
ATOM     26  C   UNL     1     128.804 115.876 131.054  1.00  0.00     0.009 A 
ATOM     27  C   UNL     1     128.866 114.484 133.468  1.00  0.00     0.001 A 
ATOM     28  C   UNL     1     127.649 115.773 131.831  1.00  0.00     0.001 A 
ATOM     29  C   UNL     1     127.680 115.074 133.035  1.00  0.00     0.000 A 
ENDBRANCH  17  24
ENDBRANCH   9  12
ENDBRANCH   1   8
BRANCH   7  30
ATOM     30  C   UNL     1     132.681 121.360 131.400  1.00  0.00     0.417 C 
ATOM     31  F   UNL     1     133.495 122.364 131.818  1.00  0.00    -0.166 F 
ATOM     32  F   UNL     1     133.524 120.349 131.031  1.00  0.00    -0.166 F 
ATOM     33  F   UNL     1     132.098 121.766 130.241  1.00  0.00    -0.166 F 
ENDBRANCH   7  30
BRANCH   4  34
ATOM     34  C   UNL     1     128.866 119.680 135.501  1.00  0.00     0.180 C 
BRANCH  34  35
ATOM     35  S   UNL     1     129.774 118.967 136.868  1.00  0.00     0.182 S 
ATOM     36  O   UNL     1     129.759 119.908 137.975  1.00  0.00    -0.223 OA
ATOM     37  O   UNL     1     131.024 118.412 136.385  1.00  0.00    -0.223 OA
BRANCH  35  38
ATOM     38  C   UNL     1     128.744 117.593 137.333  1.00  0.00     0.067 A 
ATOM     39  C   UNL     1     128.036 117.646 138.538  1.00  0.00     0.020 A 
ATOM     40  C   UNL     1     128.631 116.491 136.481  1.00  0.00     0.020 A 
ATOM     41  C   UNL     1     127.227 116.569 138.902  1.00  0.00     0.001 A 
ATOM     42  C   UNL     1     127.820 115.420 136.855  1.00  0.00     0.001 A 
ATOM     43  C   UNL     1     127.122 115.458 138.063  1.00  0.00     0.000 A 
ENDBRANCH  35  38
ENDBRANCH  34  35
ENDBRANCH   4  34
TORSDOF 9
ENDMDL
MODEL 5
REMARK VINA RESULT:     -12.6      0.812      1.352
REMARK SMILES NC(=O)Cc1ccc(NC(=O)c2c(C(F)(F)F)ccc(CS(=O)(=O)c3ccccc3)c2F)c(-c2ccccc2)c1
REMARK SMILES IDX 12 1 31 2 32 3 20 4 19 5 18 6 13 7 10 8 9 9 11 11 8 12 5 13
REMARK SMILES IDX 6 14 40 15 7 16 33 17 4 18 2 19 1 20 3 23 34 24 35 25 39 26
REMARK SMILES IDX 36 27 38 28 37 29 14 30 15 31 16 32 17 33 21 34 22 35 23 36
REMARK SMILES IDX 24 37 25 38 26 39 30 40 27 41 29 42 28 43
REMARK H PARENT 9 10 1 21 1 22
REMARK Flexibility Score: inf
ROOT
ATOM      1  C   UNL     1     130.975 119.618 132.535  1.00  0.00     0.088 A 
ATOM      2  C   UNL     1     130.044 119.302 133.529  1.00  0.00     0.140 A 
ATOM      3  F   UNL     1     129.341 118.162 133.454  1.00  0.00    -0.206 F 
ATOM      4  C   UNL     1     129.803 120.166 134.601  1.00  0.00     0.004 A 
ATOM      5  C   UNL     1     130.524 121.364 134.671  1.00  0.00     0.008 A 
ATOM      6  C   UNL     1     131.454 121.688 133.678  1.00  0.00     0.014 A 
ATOM      7  C   UNL     1     131.695 120.821 132.597  1.00  0.00     0.071 A 
ENDROOT
BRANCH   1   8
ATOM      8  C   UNL     1     131.135 118.695 131.392  1.00  0.00     0.259 C 
ATOM      9  N   UNL     1     131.594 117.441 131.726  1.00  0.00    -0.321 N 
ATOM     10  H   UNL     1     131.815 117.278 132.703  1.00  0.00     0.170 HD
ATOM     11  O   UNL     1     130.875 119.138 130.282  1.00  0.00    -0.269 OA
BRANCH   9  12
ATOM     12  C   UNL     1     131.817 116.336 130.863  1.00  0.00     0.049 A 
ATOM     13  C   UNL     1     132.220 114.102 129.174  1.00  0.00    -0.038 A 
ATOM     14  C   UNL     1     133.154 115.138 129.218  1.00  0.00     0.006 A 
ATOM     15  C   UNL     1     131.077 114.192 129.978  1.00  0.00     0.015 A 
ATOM     16  C   UNL     1     132.955 116.241 130.054  1.00  0.00     0.027 A 
ATOM     17  C   UNL     1     130.856 115.296 130.825  1.00  0.00     0.006 A 
BRANCH  13  18
ATOM     18  C   UNL     1     132.443 112.895 128.294  1.00  0.00     0.135 C 
BRANCH  18  19
ATOM     19  C   UNL     1     133.625 113.039 127.354  1.00  0.00     0.221 C 
ATOM     20  N   UNL     1     134.816 112.544 127.803  1.00  0.00    -0.369 N 
ATOM     21  H   UNL     1     134.834 111.818 128.508  1.00  0.00     0.159 HD
ATOM     22  H   UNL     1     135.578 112.554 127.137  1.00  0.00     0.159 HD
ATOM     23  O   UNL     1     133.557 113.615 126.272  1.00  0.00    -0.275 OA
ENDBRANCH  18  19
ENDBRANCH  13  18
BRANCH  17  24
ATOM     24  C   UNL     1     129.634 115.314 131.649  1.00  0.00    -0.016 A 
ATOM     25  C   UNL     1     128.453 115.905 131.174  1.00  0.00     0.009 A 
ATOM     26  C   UNL     1     129.636 114.758 132.938  1.00  0.00     0.009 A 
ATOM     27  C   UNL     1     127.311 115.956 131.975  1.00  0.00     0.001 A 
ATOM     28  C   UNL     1     128.492 114.803 133.736  1.00  0.00     0.001 A 
ATOM     29  C   UNL     1     127.331 115.406 133.256  1.00  0.00     0.000 A 
ENDBRANCH  17  24
ENDBRANCH   9  12
ENDBRANCH   1   8
BRANCH   7  30
ATOM     30  C   UNL     1     132.706 121.194 131.540  1.00  0.00     0.417 C 
ATOM     31  F   UNL     1     133.442 120.139 131.103  1.00  0.00    -0.166 F 
ATOM     32  F   UNL     1     132.110 121.701 130.419  1.00  0.00    -0.166 F 
ATOM     33  F   UNL     1     133.577 122.160 131.936  1.00  0.00    -0.166 F 
ENDBRANCH   7  30
BRANCH   4  34
ATOM     34  C   UNL     1     128.801 119.796 135.661  1.00  0.00     0.180 C 
BRANCH  34  35
ATOM     35  S   UNL     1     129.636 118.878 136.951  1.00  0.00     0.182 S 
ATOM     36  O   UNL     1     129.877 119.770 138.071  1.00  0.00    -0.223 OA
ATOM     37  O   UNL     1     130.719 118.105 136.373  1.00  0.00    -0.223 OA
BRANCH  35  38
ATOM     38  C   UNL     1     128.388 117.718 137.461  1.00  0.00     0.067 A 
ATOM     39  C   UNL     1     128.156 117.519 138.826  1.00  0.00     0.020 A 
ATOM     40  C   UNL     1     127.634 117.040 136.499  1.00  0.00     0.020 A 
ATOM     41  C   UNL     1     127.177 116.610 139.228  1.00  0.00     0.001 A 
ATOM     42  C   UNL     1     126.657 116.134 136.910  1.00  0.00     0.001 A 
ATOM     43  C   UNL     1     126.431 115.918 138.271  1.00  0.00     0.000 A 
ENDBRANCH  35  38
ENDBRANCH  34  35
ENDBRANCH   4  34
TORSDOF 9
ENDMDL
MODEL 6
REMARK VINA RESULT:     -12.2      1.112      1.321
REMARK SMILES NC(=O)Cc1ccc(NC(=O)c2c(C(F)(F)F)ccc(CS(=O)(=O)c3ccccc3)c2F)c(-c2ccccc2)c1
REMARK SMILES IDX 12 1 31 2 32 3 20 4 19 5 18 6 13 7 10 8 9 9 11 11 8 12 5 13
REMARK SMILES IDX 6 14 40 15 7 16 33 17 4 18 2 19 1 20 3 23 34 24 35 25 39 26
REMARK SMILES IDX 36 27 38 28 37 29 14 30 15 31 16 32 17 33 21 34 22 35 23 36
REMARK SMILES IDX 24 37 25 38 26 39 30 40 27 41 29 42 28 43
REMARK H PARENT 9 10 1 21 1 22
REMARK Flexibility Score: inf
ROOT
ATOM      1  C   UNL     1     131.075 119.446 132.239  1.00  0.00     0.088 A 
ATOM      2  C   UNL     1     130.124 119.126 133.214  1.00  0.00     0.140 A 
ATOM      3  F   UNL     1     129.434 117.979 133.130  1.00  0.00    -0.206 F 
ATOM      4  C   UNL     1     129.851 119.994 134.275  1.00  0.00     0.004 A 
ATOM      5  C   UNL     1     130.558 121.200 134.354  1.00  0.00     0.008 A 
ATOM      6  C   UNL     1     131.507 121.528 133.380  1.00  0.00     0.014 A 
ATOM      7  C   UNL     1     131.781 120.657 132.310  1.00  0.00     0.071 A 
ENDROOT
BRANCH   1   8
ATOM      8  C   UNL     1     131.269 118.518 131.106  1.00  0.00     0.259 C 
ATOM      9  N   UNL     1     131.770 117.284 131.453  1.00  0.00    -0.321 N 
ATOM     10  H   UNL     1     131.994 117.138 132.433  1.00  0.00     0.170 HD
ATOM     11  O   UNL     1     130.997 118.941 129.990  1.00  0.00    -0.269 OA
BRANCH   9  12
ATOM     12  C   UNL     1     132.034 116.179 130.602  1.00  0.00     0.049 A 
ATOM     13  C   UNL     1     132.519 113.943 128.937  1.00  0.00    -0.038 A 
ATOM     14  C   UNL     1     133.400 115.026 128.948  1.00  0.00     0.006 A 
ATOM     15  C   UNL     1     131.388 113.987 129.761  1.00  0.00     0.015 A 
ATOM     16  C   UNL     1     133.160 116.130 129.772  1.00  0.00     0.027 A 
ATOM     17  C   UNL     1     131.126 115.091 130.596  1.00  0.00     0.006 A 
BRANCH  13  18
ATOM     18  C   UNL     1     132.787 112.737 128.069  1.00  0.00     0.135 C 
BRANCH  18  19
ATOM     19  C   UNL     1     131.583 112.287 127.263  1.00  0.00     0.221 C 
ATOM     20  N   UNL     1     131.755 111.172 126.492  1.00  0.00    -0.369 N 
ATOM     21  H   UNL     1     132.471 110.495 126.726  1.00  0.00     0.159 HD
ATOM     22  H   UNL     1     130.924 110.821 126.034  1.00  0.00     0.159 HD
ATOM     23  O   UNL     1     130.522 112.904 127.239  1.00  0.00    -0.275 OA
ENDBRANCH  18  19
ENDBRANCH  13  18
BRANCH  17  24
ATOM     24  C   UNL     1     129.921 115.058 131.444  1.00  0.00    -0.016 A 
ATOM     25  C   UNL     1     129.933 114.411 132.689  1.00  0.00     0.009 A 
ATOM     26  C   UNL     1     128.728 115.657 131.010  1.00  0.00     0.009 A 
ATOM     27  C   UNL     1     128.778 114.346 133.469  1.00  0.00     0.001 A 
ATOM     28  C   UNL     1     127.574 115.598 131.794  1.00  0.00     0.001 A 
ATOM     29  C   UNL     1     127.599 114.938 133.021  1.00  0.00     0.000 A 
ENDBRANCH  17  24
ENDBRANCH   9  12
ENDBRANCH   1   8
BRANCH   7  30
ATOM     30  C   UNL     1     132.812 121.034 131.274  1.00  0.00     0.417 C 
ATOM     31  F   UNL     1     133.684 121.983 131.703  1.00  0.00    -0.166 F 
ATOM     32  F   UNL     1     133.593 119.968 130.920  1.00  0.00    -0.166 F 
ATOM     33  F   UNL     1     132.276 121.474 130.105  1.00  0.00    -0.166 F 
ENDBRANCH   7  30
BRANCH   4  34
ATOM     34  C   UNL     1     128.829 119.620 135.315  1.00  0.00     0.180 C 
BRANCH  34  35
ATOM     35  S   UNL     1     129.679 119.032 136.775  1.00  0.00     0.182 S 
ATOM     36  O   UNL     1     129.586 120.050 137.807  1.00  0.00    -0.223 OA
ATOM     37  O   UNL     1     130.964 118.475 136.398  1.00  0.00    -0.223 OA
BRANCH  35  38
ATOM     38  C   UNL     1     128.656 117.670 137.288  1.00  0.00     0.067 A 
ATOM     39  C   UNL     1     128.205 117.613 138.610  1.00  0.00     0.020 A 
ATOM     40  C   UNL     1     128.291 116.688 136.362  1.00  0.00     0.020 A 
ATOM     41  C   UNL     1     127.402 116.546 139.013  1.00  0.00     0.001 A 
ATOM     42  C   UNL     1     127.488 115.625 136.775  1.00  0.00     0.001 A 
ATOM     43  C   UNL     1     127.047 115.553 138.097  1.00  0.00     0.000 A 
ENDBRANCH  35  38
ENDBRANCH  34  35
ENDBRANCH   4  34
TORSDOF 9
ENDMDL
MODEL 7
REMARK VINA RESULT:     -12.2      1.112      1.550
REMARK SMILES NC(=O)Cc1ccc(NC(=O)c2c(C(F)(F)F)ccc(CS(=O)(=O)c3ccccc3)c2F)c(-c2ccccc2)c1
REMARK SMILES IDX 12 1 31 2 32 3 20 4 19 5 18 6 13 7 10 8 9 9 11 11 8 12 5 13
REMARK SMILES IDX 6 14 40 15 7 16 33 17 4 18 2 19 1 20 3 23 34 24 35 25 39 26
REMARK SMILES IDX 36 27 38 28 37 29 14 30 15 31 16 32 17 33 21 34 22 35 23 36
REMARK SMILES IDX 24 37 25 38 26 39 30 40 27 41 29 42 28 43
REMARK H PARENT 9 10 1 21 1 22
REMARK Flexibility Score: inf
ROOT
ATOM      1  C   UNL     1     131.086 119.428 132.257  1.00  0.00     0.088 A 
ATOM      2  C   UNL     1     130.154 119.090 133.244  1.00  0.00     0.140 A 
ATOM      3  F   UNL     1     129.485 117.930 133.167  1.00  0.00    -0.206 F 
ATOM      4  C   UNL     1     129.880 119.951 134.311  1.00  0.00     0.004 A 
ATOM      5  C   UNL     1     130.566 121.169 134.383  1.00  0.00     0.008 A 
ATOM      6  C   UNL     1     131.495 121.516 133.397  1.00  0.00     0.014 A 
ATOM      7  C   UNL     1     131.770 120.652 132.321  1.00  0.00     0.071 A 
ENDROOT
BRANCH   1   8
ATOM      8  C   UNL     1     131.282 118.507 131.120  1.00  0.00     0.259 C 
ATOM      9  N   UNL     1     131.775 117.267 131.462  1.00  0.00    -0.321 N 
ATOM     10  H   UNL     1     131.993 117.115 132.442  1.00  0.00     0.170 HD
ATOM     11  O   UNL     1     131.018 118.938 130.005  1.00  0.00    -0.269 OA
BRANCH   9  12
ATOM     12  C   UNL     1     132.038 116.167 130.606  1.00  0.00     0.049 A 
ATOM     13  C   UNL     1     132.521 113.938 128.930  1.00  0.00    -0.038 A 
ATOM     14  C   UNL     1     133.405 115.019 128.949  1.00  0.00     0.006 A 
ATOM     15  C   UNL     1     131.387 113.982 129.750  1.00  0.00     0.015 A 
ATOM     16  C   UNL     1     133.166 116.119 129.779  1.00  0.00     0.027 A 
ATOM     17  C   UNL     1     131.127 115.082 130.591  1.00  0.00     0.006 A 
BRANCH  13  18
ATOM     18  C   UNL     1     132.788 112.736 128.056  1.00  0.00     0.135 C 
BRANCH  18  19
ATOM     19  C   UNL     1     131.577 112.278 127.265  1.00  0.00     0.221 C 
ATOM     20  N   UNL     1     131.740 111.150 126.512  1.00  0.00    -0.369 N 
ATOM     21  H   UNL     1     132.455 110.474 126.753  1.00  0.00     0.159 HD
ATOM     22  H   UNL     1     130.906 110.794 126.064  1.00  0.00     0.159 HD
ATOM     23  O   UNL     1     130.519 112.898 127.237  1.00  0.00    -0.275 OA
ENDBRANCH  18  19
ENDBRANCH  13  18
BRANCH  17  24
ATOM     24  C   UNL     1     129.919 115.048 131.435  1.00  0.00    -0.016 A 
ATOM     25  C   UNL     1     128.717 115.624 130.996  1.00  0.00     0.009 A 
ATOM     26  C   UNL     1     129.955 114.457 132.708  1.00  0.00     0.009 A 
ATOM     27  C   UNL     1     127.588 115.628 131.816  1.00  0.00     0.001 A 
ATOM     28  C   UNL     1     128.823 114.454 133.525  1.00  0.00     0.001 A 
ATOM     29  C   UNL     1     127.641 115.043 133.080  1.00  0.00     0.000 A 
ENDBRANCH  17  24
ENDBRANCH   9  12
ENDBRANCH   1   8
BRANCH   7  30
ATOM     30  C   UNL     1     132.781 121.050 131.273  1.00  0.00     0.417 C 
ATOM     31  F   UNL     1     133.588 120.027 130.888  1.00  0.00    -0.166 F 
ATOM     32  F   UNL     1     132.180 121.480 130.122  1.00  0.00    -0.166 F 
ATOM     33  F   UNL     1     133.583 122.080 131.651  1.00  0.00    -0.166 F 
ENDBRANCH   7  30
BRANCH   4  34
ATOM     34  C   UNL     1     128.879 119.556 135.363  1.00  0.00     0.180 C 
BRANCH  34  35
ATOM     35  S   UNL     1     129.759 118.998 136.818  1.00  0.00     0.182 S 
ATOM     36  O   UNL     1     129.695 120.040 137.826  1.00  0.00    -0.223 OA
ATOM     37  O   UNL     1     131.033 118.425 136.425  1.00  0.00    -0.223 OA
BRANCH  35  38
ATOM     38  C   UNL     1     128.742 117.654 137.386  1.00  0.00     0.067 A 
ATOM     39  C   UNL     1     128.580 116.527 136.573  1.00  0.00     0.020 A 
ATOM     40  C   UNL     1     128.139 117.723 138.645  1.00  0.00     0.020 A 
ATOM     41  C   UNL     1     127.784 115.472 137.018  1.00  0.00     0.001 A 
ATOM     42  C   UNL     1     127.345 116.662 139.081  1.00  0.00     0.001 A 
ATOM     43  C   UNL     1     127.166 115.542 138.269  1.00  0.00     0.000 A 
ENDBRANCH  35  38
ENDBRANCH  34  35
ENDBRANCH   4  34
TORSDOF 9
ENDMDL
MODEL 8
REMARK VINA RESULT:     -11.4      0.877      1.405
REMARK SMILES NC(=O)Cc1ccc(NC(=O)c2c(C(F)(F)F)ccc(CS(=O)(=O)c3ccccc3)c2F)c(-c2ccccc2)c1
REMARK SMILES IDX 12 1 31 2 32 3 20 4 19 5 18 6 13 7 10 8 9 9 11 11 8 12 5 13
REMARK SMILES IDX 6 14 40 15 7 16 33 17 4 18 2 19 1 20 3 23 34 24 35 25 39 26
REMARK SMILES IDX 36 27 38 28 37 29 14 30 15 31 16 32 17 33 21 34 22 35 23 36
REMARK SMILES IDX 24 37 25 38 26 39 30 40 27 41 29 42 28 43
REMARK H PARENT 9 10 1 21 1 22
REMARK Flexibility Score: inf
ROOT
ATOM      1  C   UNL     1     131.061 119.874 132.516  1.00  0.00     0.088 A 
ATOM      2  C   UNL     1     130.076 119.417 133.398  1.00  0.00     0.140 A 
ATOM      3  F   UNL     1     129.406 118.286 133.130  1.00  0.00    -0.206 F 
ATOM      4  C   UNL     1     129.750 120.129 134.555  1.00  0.00     0.004 A 
ATOM      5  C   UNL     1     130.438 121.318 134.827  1.00  0.00     0.008 A 
ATOM      6  C   UNL     1     131.420 121.783 133.947  1.00  0.00     0.014 A 
ATOM      7  C   UNL     1     131.747 121.069 132.780  1.00  0.00     0.071 A 
ENDROOT
BRANCH   1   8
ATOM      8  C   UNL     1     131.312 119.111 131.276  1.00  0.00     0.259 C 
ATOM      9  N   UNL     1     131.950 117.905 131.462  1.00  0.00    -0.321 N 
ATOM     10  H   UNL     1     132.221 117.671 132.412  1.00  0.00     0.170 HD
ATOM     11  O   UNL     1     130.960 119.630 130.225  1.00  0.00    -0.269 OA
BRANCH   9  12
ATOM     12  C   UNL     1     132.298 116.943 130.479  1.00  0.00     0.049 A 
ATOM     13  C   UNL     1     132.955 114.982 128.547  1.00  0.00    -0.038 A 
ATOM     14  C   UNL     1     133.736 116.130 128.689  1.00  0.00     0.006 A 
ATOM     15  C   UNL     1     131.837 114.822 129.374  1.00  0.00     0.015 A 
ATOM     16  C   UNL     1     133.412 117.098 129.645  1.00  0.00     0.027 A 
ATOM     17  C   UNL     1     131.490 115.787 130.341  1.00  0.00     0.006 A 
BRANCH  13  18
ATOM     18  C   UNL     1     133.317 113.921 127.535  1.00  0.00     0.135 C 
BRANCH  18  19
ATOM     19  C   UNL     1     133.000 112.510 127.993  1.00  0.00     0.221 C 
ATOM     20  N   UNL     1     132.262 111.748 127.131  1.00  0.00    -0.369 N 
ATOM     21  H   UNL     1     132.259 111.955 126.140  1.00  0.00     0.159 HD
ATOM     22  H   UNL     1     132.136 110.780 127.397  1.00  0.00     0.159 HD
ATOM     23  O   UNL     1     133.322 112.073 129.093  1.00  0.00    -0.275 OA
ENDBRANCH  18  19
ENDBRANCH  13  18
BRANCH  17  24
ATOM     24  C   UNL     1     130.306 115.541 131.182  1.00  0.00    -0.016 A 
ATOM     25  C   UNL     1     129.042 116.022 130.806  1.00  0.00     0.009 A 
ATOM     26  C   UNL     1     130.423 114.839 132.392  1.00  0.00     0.009 A 
ATOM     27  C   UNL     1     127.931 115.824 131.627  1.00  0.00     0.001 A 
ATOM     28  C   UNL     1     129.310 114.635 133.210  1.00  0.00     0.001 A 
ATOM     29  C   UNL     1     128.066 115.131 132.828  1.00  0.00     0.000 A 
ENDBRANCH  17  24
ENDBRANCH   9  12
ENDBRANCH   1   8
BRANCH   7  30
ATOM     30  C   UNL     1     132.814 121.591 131.849  1.00  0.00     0.417 C 
ATOM     31  F   UNL     1     133.718 122.397 132.465  1.00  0.00    -0.166 F 
ATOM     32  F   UNL     1     133.554 120.580 131.301  1.00  0.00    -0.166 F 
ATOM     33  F   UNL     1     132.320 122.276 130.783  1.00  0.00    -0.166 F 
ENDBRANCH   7  30
BRANCH   4  34
ATOM     34  C   UNL     1     128.693 119.609 135.492  1.00  0.00     0.180 C 
BRANCH  34  35
ATOM     35  S   UNL     1     129.490 118.784 136.864  1.00  0.00     0.182 S 
ATOM     36  O   UNL     1     129.548 119.703 137.986  1.00  0.00    -0.223 OA
ATOM     37  O   UNL     1     130.687 118.110 136.396  1.00  0.00    -0.223 OA
BRANCH  35  38
ATOM     38  C   UNL     1     128.314 117.517 137.282  1.00  0.00     0.067 A 
ATOM     39  C   UNL     1     127.806 116.695 136.272  1.00  0.00     0.020 A 
ATOM     40  C   UNL     1     127.931 117.337 138.615  1.00  0.00     0.020 A 
ATOM     41  C   UNL     1     126.884 115.699 136.600  1.00  0.00     0.001 A 
ATOM     42  C   UNL     1     127.010 116.340 138.932  1.00  0.00     0.001 A 
ATOM     43  C   UNL     1     126.486 115.525 137.927  1.00  0.00     0.000 A 
ENDBRANCH  35  38
ENDBRANCH  34  35
ENDBRANCH   4  34
TORSDOF 9
ENDMDL
MODEL 9
REMARK VINA RESULT:     -11.3      1.248      1.625
REMARK SMILES NC(=O)Cc1ccc(NC(=O)c2c(C(F)(F)F)ccc(CS(=O)(=O)c3ccccc3)c2F)c(-c2ccccc2)c1
REMARK SMILES IDX 12 1 31 2 32 3 20 4 19 5 18 6 13 7 10 8 9 9 11 11 8 12 5 13
REMARK SMILES IDX 6 14 40 15 7 16 33 17 4 18 2 19 1 20 3 23 34 24 35 25 39 26
REMARK SMILES IDX 36 27 38 28 37 29 14 30 15 31 16 32 17 33 21 34 22 35 23 36
REMARK SMILES IDX 24 37 25 38 26 39 30 40 27 41 29 42 28 43
REMARK H PARENT 9 10 1 21 1 22
REMARK Flexibility Score: inf
ROOT
ATOM      1  C   UNL     1     131.373 119.533 132.389  1.00  0.00     0.088 A 
ATOM      2  C   UNL     1     130.426 119.040 133.292  1.00  0.00     0.140 A 
ATOM      3  F   UNL     1     130.252 117.717 133.429  1.00  0.00    -0.206 F 
ATOM      4  C   UNL     1     129.627 119.902 134.050  1.00  0.00     0.004 A 
ATOM      5  C   UNL     1     129.796 121.283 133.895  1.00  0.00     0.008 A 
ATOM      6  C   UNL     1     130.738 121.782 132.990  1.00  0.00     0.014 A 
ATOM      7  C   UNL     1     131.541 120.917 132.225  1.00  0.00     0.071 A 
ENDROOT
BRANCH   1   8
ATOM      8  C   UNL     1     132.139 118.573 131.569  1.00  0.00     0.259 C 
ATOM      9  N   UNL     1     131.478 117.397 131.292  1.00  0.00    -0.321 N 
ATOM     10  H   UNL     1     130.556 117.281 131.702  1.00  0.00     0.170 HD
ATOM     11  O   UNL     1     133.274 118.900 131.247  1.00  0.00    -0.269 OA
BRANCH   9  12
ATOM     12  C   UNL     1     131.934 116.304 130.511  1.00  0.00     0.049 A 
ATOM     13  C   UNL     1     132.806 114.085 128.986  1.00  0.00    -0.038 A 
ATOM     14  C   UNL     1     133.512 115.289 128.959  1.00  0.00     0.006 A 
ATOM     15  C   UNL     1     131.655 113.998 129.778  1.00  0.00     0.015 A 
ATOM     16  C   UNL     1     133.081 116.384 129.713  1.00  0.00     0.027 A 
ATOM     17  C   UNL     1     131.201 115.091 130.544  1.00  0.00     0.006 A 
BRANCH  13  18
ATOM     18  C   UNL     1     133.282 112.890 128.194  1.00  0.00     0.135 C 
BRANCH  18  19
ATOM     19  C   UNL     1     134.741 112.547 128.430  1.00  0.00     0.221 C 
ATOM     20  N   UNL     1     135.082 112.207 129.709  1.00  0.00    -0.369 N 
ATOM     21  H   UNL     1     134.382 111.843 130.344  1.00  0.00     0.159 HD
ATOM     22  H   UNL     1     136.032 111.885 129.841  1.00  0.00     0.159 HD
ATOM     23  O   UNL     1     135.598 112.620 127.555  1.00  0.00    -0.275 OA
ENDBRANCH  18  19
ENDBRANCH  13  18
BRANCH  17  24
ATOM     24  C   UNL     1     129.988 114.918 131.361  1.00  0.00    -0.016 A 
ATOM     25  C   UNL     1     128.754 115.439 130.940  1.00  0.00     0.009 A 
ATOM     26  C   UNL     1     130.047 114.247 132.593  1.00  0.00     0.009 A 
ATOM     27  C   UNL     1     127.617 115.310 131.738  1.00  0.00     0.001 A 
ATOM     28  C   UNL     1     128.908 114.112 133.388  1.00  0.00     0.001 A 
ATOM     29  C   UNL     1     127.694 114.647 132.961  1.00  0.00     0.000 A 
ENDBRANCH  17  24
ENDBRANCH   9  12
ENDBRANCH   1   8
BRANCH   7  30
ATOM     30  C   UNL     1     132.553 121.483 131.258  1.00  0.00     0.417 C 
ATOM     31  F   UNL     1     133.836 121.180 131.584  1.00  0.00    -0.166 F 
ATOM     32  F   UNL     1     132.381 120.990 129.994  1.00  0.00    -0.166 F 
ATOM     33  F   UNL     1     132.477 122.833 131.117  1.00  0.00    -0.166 F 
ENDBRANCH   7  30
BRANCH   4  34
ATOM     34  C   UNL     1     128.622 119.343 135.021  1.00  0.00     0.180 C 
BRANCH  34  35
ATOM     35  S   UNL     1     129.361 119.287 136.649  1.00  0.00     0.182 S 
ATOM     36  O   UNL     1     128.875 120.420 137.418  1.00  0.00    -0.223 OA
ATOM     37  O   UNL     1     130.784 119.030 136.528  1.00  0.00    -0.223 OA
BRANCH  35  38
ATOM     38  C   UNL     1     128.629 117.825 137.350  1.00  0.00     0.067 A 
ATOM     39  C   UNL     1     128.054 117.890 138.622  1.00  0.00     0.020 A 
ATOM     40  C   UNL     1     128.612 116.636 136.614  1.00  0.00     0.020 A 
ATOM     41  C   UNL     1     127.478 116.744 139.171  1.00  0.00     0.001 A 
ATOM     42  C   UNL     1     128.034 115.496 137.171  1.00  0.00     0.001 A 
ATOM     43  C   UNL     1     127.471 115.549 138.448  1.00  0.00     0.000 A 
ENDBRANCH  35  38
ENDBRANCH  34  35
ENDBRANCH   4  34
TORSDOF 9
ENDMDL
