MODEL 1
REMARK VINA RESULT:     -10.7      0.000      0.000
REMARK SMILES [O]C(=O)c1[c][c][c]c(-c2[c][c][c][c]c2S[C][C]2[C]N(C(=O)[C]3[C][C]3)[C][C]N2C(=O)c2[c][c][c][c][c]2)[c]1
REMARK SMILES IDX 15 1 14 2 9 3 10 4 11 5 13 6 12 7 8 8 4 9 5 10 36 11 6 12
REMARK SMILES IDX 7 13 2 14 1 15 3 16 16 17 17 18 18 19 27 20 19 21 26 22
REMARK SMILES IDX 25 23 28 24 29 25 30 26 31 27 35 28 32 29 34 30 33 31 20 32
REMARK SMILES IDX 21 33 22 34 23 35 24 36
REMARK H PARENT
REMARK Flexibility Score: inf
ROOT
ATOM      1  S   UNL     1     130.704 115.687 131.093  1.00  0.00    -0.112 SA
ENDROOT
BRANCH   1   2
ATOM      2  C   UNL     1     131.912 116.868 130.490  1.00  0.00     0.025 A 
ATOM      3  C   UNL     1     133.045 116.568 129.701  1.00  0.00     0.006 A 
ATOM      4  C   UNL     1     133.867 117.631 129.293  1.00  0.00     0.001 A 
ATOM      5  C   UNL     1     133.605 118.947 129.663  1.00  0.00     0.000 A 
ATOM      6  C   UNL     1     131.668 118.195 130.867  1.00  0.00     0.006 A 
ATOM      7  C   UNL     1     132.504 119.229 130.459  1.00  0.00     0.001 A 
BRANCH   3   8
ATOM      8  C   UNL     1     133.403 115.221 129.254  1.00  0.00     0.001 A 
ATOM      9  C   UNL     1     134.941 113.324 129.356  1.00  0.00     0.081 A 
ATOM     10  C   UNL     1     134.243 112.720 128.308  1.00  0.00     0.007 A 
ATOM     11  C   UNL     1     134.492 114.558 129.834  1.00  0.00     0.007 A 
ATOM     12  C   UNL     1     133.126 113.336 127.752  1.00  0.00     0.000 A 
ATOM     13  C   UNL     1     132.718 114.587 128.214  1.00  0.00     0.000 A 
BRANCH   9  14
ATOM     14  C   UNL     1     136.203 112.725 129.888  1.00  0.00     0.387 C 
ATOM     15  O   UNL     1     136.403 112.818 131.139  1.00  0.00    -0.241 OA
ATOM     16  O   UNL     1     137.006 112.219 129.044  1.00  0.00    -0.241 OA
ENDBRANCH   9  14
ENDBRANCH   3   8
ENDBRANCH   1   2
BRANCH   1  17
ATOM     17  C   UNL     1     130.050 116.636 132.336  1.00  0.00     0.087 C 
BRANCH  17  18
ATOM     18  C   UNL     1     129.426 117.326 133.410  1.00  0.00     0.117 C 
ATOM     19  C   UNL     1     129.556 118.765 133.562  1.00  0.00     0.127 C 
ATOM     20  N   UNL     1     128.939 116.661 134.587  1.00  0.00    -0.313 N 
ATOM     21  N   UNL     1     129.451 119.770 134.496  1.00  0.00    -0.315 N 
ATOM     22  C   UNL     1     128.702 117.585 135.576  1.00  0.00     0.129 C 
ATOM     23  C   UNL     1     128.943 119.108 135.577  1.00  0.00     0.128 C 
BRANCH  20  24
ATOM     24  C   UNL     1     128.791 115.269 134.643  1.00  0.00     0.256 C 
ATOM     25  O   UNL     1     129.302 114.530 135.484  1.00  0.00    -0.269 OA
BRANCH  24  26
ATOM     26  C   UNL     1     127.991 114.614 133.582  1.00  0.00     0.057 A 
ATOM     27  C   UNL     1     126.754 115.168 133.248  1.00  0.00     0.005 A 
ATOM     28  C   UNL     1     128.494 113.546 132.843  1.00  0.00     0.005 A 
ATOM     29  C   UNL     1     126.004 114.625 132.209  1.00  0.00     0.000 A 
ATOM     30  C   UNL     1     127.743 113.001 131.803  1.00  0.00     0.000 A 
ATOM     31  C   UNL     1     126.498 113.540 131.488  1.00  0.00     0.000 A 
ENDBRANCH  24  26
ENDBRANCH  20  24
BRANCH  21  32
ATOM     32  C   UNL     1     129.913 121.075 134.378  1.00  0.00     0.232 C 
ATOM     33  O   UNL     1     129.189 122.071 134.401  1.00  0.00    -0.274 OA
BRANCH  32  34
ATOM     34  C   UNL     1     131.392 121.173 134.279  1.00  0.00     0.080 C 
ATOM     35  C   UNL     1     132.060 122.436 134.373  1.00  0.00     0.010 C 
ATOM     36  C   UNL     1     132.051 121.649 133.101  1.00  0.00     0.010 C 
ENDBRANCH  32  34
ENDBRANCH  21  32
ENDBRANCH  17  18
ENDBRANCH   1  17
TORSDOF 9
ENDMDL
MODEL 2
REMARK VINA RESULT:     -10.4      2.469      8.766
REMARK SMILES [O]C(=O)c1[c][c][c]c(-c2[c][c][c][c]c2S[C][C]2[C]N(C(=O)[C]3[C][C]3)[C][C]N2C(=O)c2[c][c][c][c][c]2)[c]1
REMARK SMILES IDX 15 1 14 2 9 3 10 4 11 5 13 6 12 7 8 8 4 9 5 10 36 11 6 12
REMARK SMILES IDX 7 13 2 14 1 15 3 16 16 17 17 18 18 19 27 20 19 21 26 22
REMARK SMILES IDX 25 23 28 24 29 25 30 26 31 27 35 28 32 29 34 30 33 31 20 32
REMARK SMILES IDX 21 33 22 34 23 35 24 36
REMARK H PARENT
REMARK Flexibility Score: inf
ROOT
ATOM      1  S   UNL     1     129.992 113.611 133.158  1.00  0.00    -0.112 SA
ENDROOT
BRANCH   1   2
ATOM      2  C   UNL     1     128.296 114.106 132.842  1.00  0.00     0.025 A 
ATOM      3  C   UNL     1     127.544 115.027 133.605  1.00  0.00     0.006 A 
ATOM      4  C   UNL     1     126.234 115.317 133.189  1.00  0.00     0.001 A 
ATOM      5  C   UNL     1     125.667 114.709 132.072  1.00  0.00     0.000 A 
ATOM      6  C   UNL     1     127.708 113.490 131.730  1.00  0.00     0.006 A 
ATOM      7  C   UNL     1     126.405 113.787 131.344  1.00  0.00     0.001 A 
BRANCH   3   8
ATOM      8  C   UNL     1     128.050 115.723 134.788  1.00  0.00     0.001 A 
ATOM      9  C   UNL     1     127.815 116.257 137.162  1.00  0.00     0.081 A 
ATOM     10  C   UNL     1     128.863 117.172 137.047  1.00  0.00     0.007 A 
ATOM     11  C   UNL     1     127.441 115.523 136.033  1.00  0.00     0.007 A 
ATOM     12  C   UNL     1     129.519 117.349 135.831  1.00  0.00     0.000 A 
ATOM     13  C   UNL     1     129.104 116.638 134.706  1.00  0.00     0.000 A 
BRANCH   9  14
ATOM     14  C   UNL     1     127.033 116.137 138.430  1.00  0.00     0.387 C 
ATOM     15  O   UNL     1     126.020 115.370 138.414  1.00  0.00    -0.241 OA
ATOM     16  O   UNL     1     127.405 116.853 139.412  1.00  0.00    -0.241 OA
ENDBRANCH   9  14
ENDBRANCH   3   8
ENDBRANCH   1   2
BRANCH   1  17
ATOM     17  C   UNL     1     130.711 114.377 131.829  1.00  0.00     0.087 C 
BRANCH  17  18
ATOM     18  C   UNL     1     131.417 114.939 130.731  1.00  0.00     0.117 C 
ATOM     19  C   UNL     1     132.339 114.145 129.938  1.00  0.00     0.127 C 
ATOM     20  N   UNL     1     131.558 116.356 130.537  1.00  0.00    -0.313 N 
ATOM     21  N   UNL     1     133.409 114.263 129.080  1.00  0.00    -0.315 N 
ATOM     22  C   UNL     1     132.546 116.601 129.614  1.00  0.00     0.129 C 
ATOM     23  C   UNL     1     133.477 115.613 128.885  1.00  0.00     0.128 C 
BRANCH  20  24
ATOM     24  C   UNL     1     130.783 117.281 131.249  1.00  0.00     0.256 C 
ATOM     25  O   UNL     1     129.690 117.051 131.766  1.00  0.00    -0.269 OA
BRANCH  24  26
ATOM     26  C   UNL     1     131.291 118.669 131.362  1.00  0.00     0.057 A 
ATOM     27  C   UNL     1     131.215 119.304 132.602  1.00  0.00     0.005 A 
ATOM     28  C   UNL     1     131.940 119.297 130.300  1.00  0.00     0.005 A 
ATOM     29  C   UNL     1     131.745 120.580 132.766  1.00  0.00     0.000 A 
ATOM     30  C   UNL     1     132.470 120.575 130.463  1.00  0.00     0.000 A 
ATOM     31  C   UNL     1     132.371 121.216 131.696  1.00  0.00     0.000 A 
ENDBRANCH  24  26
ENDBRANCH  20  24
BRANCH  21  32
ATOM     32  C   UNL     1     134.273 113.251 128.676  1.00  0.00     0.232 C 
ATOM     33  O   UNL     1     134.422 112.894 127.506  1.00  0.00    -0.274 OA
BRANCH  32  34
ATOM     34  C   UNL     1     135.063 112.666 129.789  1.00  0.00     0.080 C 
ATOM     35  C   UNL     1     136.060 113.432 130.473  1.00  0.00     0.010 C 
ATOM     36  C   UNL     1     136.423 112.251 129.628  1.00  0.00     0.010 C 
ENDBRANCH  32  34
ENDBRANCH  21  32
ENDBRANCH  17  18
ENDBRANCH   1  17
TORSDOF 9
ENDMDL
MODEL 3
REMARK VINA RESULT:     -10.3      1.143      1.714
REMARK SMILES [O]C(=O)c1[c][c][c]c(-c2[c][c][c][c]c2S[C][C]2[C]N(C(=O)[C]3[C][C]3)[C][C]N2C(=O)c2[c][c][c][c][c]2)[c]1
REMARK SMILES IDX 15 1 14 2 9 3 10 4 11 5 13 6 12 7 8 8 4 9 5 10 36 11 6 12
REMARK SMILES IDX 7 13 2 14 1 15 3 16 16 17 17 18 18 19 27 20 19 21 26 22
REMARK SMILES IDX 25 23 28 24 29 25 30 26 31 27 35 28 32 29 34 30 33 31 20 32
REMARK SMILES IDX 21 33 22 34 23 35 24 36
REMARK H PARENT
REMARK Flexibility Score: inf
ROOT
ATOM      1  S   UNL     1     131.055 116.093 131.168  1.00  0.00    -0.112 SA
ENDROOT
BRANCH   1   2
ATOM      2  C   UNL     1     131.900 117.532 130.508  1.00  0.00     0.025 A 
ATOM      3  C   UNL     1     133.154 117.533 129.857  1.00  0.00     0.006 A 
ATOM      4  C   UNL     1     133.648 118.756 129.376  1.00  0.00     0.001 A 
ATOM      5  C   UNL     1     132.950 119.949 129.545  1.00  0.00     0.000 A 
ATOM      6  C   UNL     1     131.215 118.741 130.685  1.00  0.00     0.006 A 
ATOM      7  C   UNL     1     131.731 119.942 130.208  1.00  0.00     0.001 A 
BRANCH   3   8
ATOM      8  C   UNL     1     133.961 116.334 129.624  1.00  0.00     0.001 A 
ATOM      9  C   UNL     1     134.062 113.918 129.265  1.00  0.00     0.081 A 
ATOM     10  C   UNL     1     135.454 113.977 129.354  1.00  0.00     0.007 A 
ATOM     11  C   UNL     1     133.334 115.107 129.373  1.00  0.00     0.007 A 
ATOM     12  C   UNL     1     136.101 115.195 129.549  1.00  0.00     0.000 A 
ATOM     13  C   UNL     1     135.356 116.364 129.697  1.00  0.00     0.000 A 
BRANCH   9  14
ATOM     14  C   UNL     1     133.351 112.607 129.165  1.00  0.00     0.387 C 
ATOM     15  O   UNL     1     133.405 111.843 130.178  1.00  0.00    -0.241 OA
ATOM     16  O   UNL     1     132.796 112.332 128.056  1.00  0.00    -0.241 OA
ENDBRANCH   9  14
ENDBRANCH   3   8
ENDBRANCH   1   2
BRANCH   1  17
ATOM     17  C   UNL     1     130.306 116.847 132.488  1.00  0.00     0.087 C 
BRANCH  17  18
ATOM     18  C   UNL     1     129.568 117.485 133.521  1.00  0.00     0.117 C 
ATOM     19  C   UNL     1     129.656 118.918 133.740  1.00  0.00     0.127 C 
ATOM     20  N   UNL     1     128.980 116.767 134.618  1.00  0.00    -0.313 N 
ATOM     21  N   UNL     1     129.442 119.883 134.698  1.00  0.00    -0.315 N 
ATOM     22  C   UNL     1     128.631 117.647 135.614  1.00  0.00     0.129 C 
ATOM     23  C   UNL     1     128.843 119.171 135.698  1.00  0.00     0.128 C 
BRANCH  20  24
ATOM     24  C   UNL     1     128.852 115.371 134.606  1.00  0.00     0.256 C 
ATOM     25  O   UNL     1     129.323 114.603 135.444  1.00  0.00    -0.269 OA
BRANCH  24  26
ATOM     26  C   UNL     1     128.129 114.752 133.471  1.00  0.00     0.057 A 
ATOM     27  C   UNL     1     128.735 113.688 132.800  1.00  0.00     0.005 A 
ATOM     28  C   UNL     1     126.827 115.127 133.143  1.00  0.00     0.005 A 
ATOM     29  C   UNL     1     128.057 113.034 131.775  1.00  0.00     0.000 A 
ATOM     30  C   UNL     1     126.150 114.473 132.116  1.00  0.00     0.000 A 
ATOM     31  C   UNL     1     126.766 113.428 131.432  1.00  0.00     0.000 A 
ENDBRANCH  24  26
ENDBRANCH  20  24
BRANCH  21  32
ATOM     32  C   UNL     1     129.891 121.199 134.676  1.00  0.00     0.232 C 
ATOM     33  O   UNL     1     129.164 122.181 134.830  1.00  0.00    -0.274 OA
BRANCH  32  34
ATOM     34  C   UNL     1     131.361 121.321 134.509  1.00  0.00     0.080 C 
ATOM     35  C   UNL     1     132.031 122.568 134.721  1.00  0.00     0.010 C 
ATOM     36  C   UNL     1     131.953 121.943 133.364  1.00  0.00     0.010 C 
ENDBRANCH  32  34
ENDBRANCH  21  32
ENDBRANCH  17  18
ENDBRANCH   1  17
TORSDOF 9
ENDMDL
MODEL 4
REMARK VINA RESULT:     -10.3      2.477      8.784
REMARK SMILES [O]C(=O)c1[c][c][c]c(-c2[c][c][c][c]c2S[C][C]2[C]N(C(=O)[C]3[C][C]3)[C][C]N2C(=O)c2[c][c][c][c][c]2)[c]1
REMARK SMILES IDX 15 1 14 2 9 3 10 4 11 5 13 6 12 7 8 8 4 9 5 10 36 11 6 12
REMARK SMILES IDX 7 13 2 14 1 15 3 16 16 17 17 18 18 19 27 20 19 21 26 22
REMARK SMILES IDX 25 23 28 24 29 25 30 26 31 27 35 28 32 29 34 30 33 31 20 32
REMARK SMILES IDX 21 33 22 34 23 35 24 36
REMARK H PARENT
REMARK Flexibility Score: inf
ROOT
ATOM      1  S   UNL     1     129.881 113.653 133.346  1.00  0.00    -0.112 SA
ENDROOT
BRANCH   1   2
ATOM      2  C   UNL     1     128.205 114.199 133.012  1.00  0.00     0.025 A 
ATOM      3  C   UNL     1     127.482 115.162 133.752  1.00  0.00     0.006 A 
ATOM      4  C   UNL     1     126.185 115.488 133.323  1.00  0.00     0.001 A 
ATOM      5  C   UNL     1     125.601 114.877 132.217  1.00  0.00     0.000 A 
ATOM      6  C   UNL     1     127.599 113.581 131.910  1.00  0.00     0.006 A 
ATOM      7  C   UNL     1     126.309 113.914 131.512  1.00  0.00     0.001 A 
BRANCH   3   8
ATOM      8  C   UNL     1     128.008 115.865 134.923  1.00  0.00     0.001 A 
ATOM      9  C   UNL     1     127.800 116.429 137.292  1.00  0.00     0.081 A 
ATOM     10  C   UNL     1     128.859 117.329 137.157  1.00  0.00     0.007 A 
ATOM     11  C   UNL     1     127.407 115.687 136.175  1.00  0.00     0.007 A 
ATOM     12  C   UNL     1     129.506 117.483 135.934  1.00  0.00     0.000 A 
ATOM     13  C   UNL     1     129.073 116.764 134.821  1.00  0.00     0.000 A 
BRANCH   9  14
ATOM     14  C   UNL     1     127.028 116.334 138.568  1.00  0.00     0.387 C 
ATOM     15  O   UNL     1     127.483 116.974 139.567  1.00  0.00    -0.241 OA
ATOM     16  O   UNL     1     126.009 115.575 138.575  1.00  0.00    -0.241 OA
ENDBRANCH   9  14
ENDBRANCH   3   8
ENDBRANCH   1   2
BRANCH   1  17
ATOM     17  C   UNL     1     130.647 114.449 132.061  1.00  0.00     0.087 C 
BRANCH  17  18
ATOM     18  C   UNL     1     131.330 114.997 130.943  1.00  0.00     0.117 C 
ATOM     19  C   UNL     1     132.269 114.207 130.166  1.00  0.00     0.127 C 
ATOM     20  N   UNL     1     131.429 116.412 130.706  1.00  0.00    -0.313 N 
ATOM     21  N   UNL     1     133.329 114.329 129.298  1.00  0.00    -0.315 N 
ATOM     22  C   UNL     1     132.405 116.657 129.770  1.00  0.00     0.129 C 
ATOM     23  C   UNL     1     133.358 115.674 129.063  1.00  0.00     0.128 C 
BRANCH  20  24
ATOM     24  C   UNL     1     130.634 117.335 131.397  1.00  0.00     0.256 C 
ATOM     25  O   UNL     1     129.483 117.138 131.785  1.00  0.00    -0.269 OA
BRANCH  24  26
ATOM     26  C   UNL     1     131.198 118.682 131.650  1.00  0.00     0.057 A 
ATOM     27  C   UNL     1     131.646 119.429 130.560  1.00  0.00     0.005 A 
ATOM     28  C   UNL     1     131.179 119.254 132.921  1.00  0.00     0.005 A 
ATOM     29  C   UNL     1     132.116 120.725 130.749  1.00  0.00     0.000 A 
ATOM     30  C   UNL     1     131.650 120.551 133.110  1.00  0.00     0.000 A 
ATOM     31  C   UNL     1     132.120 121.285 132.024  1.00  0.00     0.000 A 
ENDBRANCH  24  26
ENDBRANCH  20  24
BRANCH  21  32
ATOM     32  C   UNL     1     134.219 113.331 128.917  1.00  0.00     0.232 C 
ATOM     33  O   UNL     1     133.915 112.361 128.220  1.00  0.00    -0.274 OA
BRANCH  32  34
ATOM     34  C   UNL     1     135.610 113.568 129.380  1.00  0.00     0.080 C 
ATOM     35  C   UNL     1     136.707 112.821 128.845  1.00  0.00     0.010 C 
ATOM     36  C   UNL     1     136.283 112.675 130.273  1.00  0.00     0.010 C 
ENDBRANCH  32  34
ENDBRANCH  21  32
ENDBRANCH  17  18
ENDBRANCH   1  17
TORSDOF 9
ENDMDL
MODEL 5
REMARK VINA RESULT:     -10.2      2.284      8.470
REMARK SMILES [O]C(=O)c1[c][c][c]c(-c2[c][c][c][c]c2S[C][C]2[C]N(C(=O)[C]3[C][C]3)[C][C]N2C(=O)c2[c][c][c][c][c]2)[c]1
REMARK SMILES IDX 15 1 14 2 9 3 10 4 11 5 13 6 12 7 8 8 4 9 5 10 36 11 6 12
REMARK SMILES IDX 7 13 2 14 1 15 3 16 16 17 17 18 18 19 27 20 19 21 26 22
REMARK SMILES IDX 25 23 28 24 29 25 30 26 31 27 35 28 32 29 34 30 33 31 20 32
REMARK SMILES IDX 21 33 22 34 23 35 24 36
REMARK H PARENT
REMARK Flexibility Score: inf
ROOT
ATOM      1  S   UNL     1     129.904 113.656 133.340  1.00  0.00    -0.112 SA
ENDROOT
BRANCH   1   2
ATOM      2  C   UNL     1     128.234 114.263 133.094  1.00  0.00     0.025 A 
ATOM      3  C   UNL     1     127.554 115.183 133.923  1.00  0.00     0.006 A 
ATOM      4  C   UNL     1     126.255 115.570 133.556  1.00  0.00     0.001 A 
ATOM      5  C   UNL     1     125.627 115.055 132.425  1.00  0.00     0.000 A 
ATOM      6  C   UNL     1     127.585 113.742 131.967  1.00  0.00     0.006 A 
ATOM      7  C   UNL     1     126.293 114.133 131.631  1.00  0.00     0.001 A 
BRANCH   3   8
ATOM      8  C   UNL     1     128.128 115.785 135.128  1.00  0.00     0.001 A 
ATOM      9  C   UNL     1     129.270 117.672 136.182  1.00  0.00     0.081 A 
ATOM     10  C   UNL     1     129.402 116.921 137.352  1.00  0.00     0.007 A 
ATOM     11  C   UNL     1     128.607 117.101 135.092  1.00  0.00     0.007 A 
ATOM     12  C   UNL     1     128.886 115.630 137.427  1.00  0.00     0.000 A 
ATOM     13  C   UNL     1     128.265 115.062 136.315  1.00  0.00     0.000 A 
BRANCH   9  14
ATOM     14  C   UNL     1     129.914 119.015 136.052  1.00  0.00     0.387 C 
ATOM     15  O   UNL     1     131.038 119.173 136.620  1.00  0.00    -0.241 OA
ATOM     16  O   UNL     1     129.263 119.912 135.432  1.00  0.00    -0.241 OA
ENDBRANCH   9  14
ENDBRANCH   3   8
ENDBRANCH   1   2
BRANCH   1  17
ATOM     17  C   UNL     1     130.631 114.426 132.017  1.00  0.00     0.087 C 
BRANCH  17  18
ATOM     18  C   UNL     1     131.321 114.968 130.900  1.00  0.00     0.117 C 
ATOM     19  C   UNL     1     132.150 114.136 130.045  1.00  0.00     0.127 C 
ATOM     20  N   UNL     1     131.548 116.377 130.732  1.00  0.00    -0.313 N 
ATOM     21  N   UNL     1     133.184 114.205 129.140  1.00  0.00    -0.315 N 
ATOM     22  C   UNL     1     132.508 116.581 129.769  1.00  0.00     0.129 C 
ATOM     23  C   UNL     1     133.335 115.552 128.974  1.00  0.00     0.128 C 
BRANCH  20  24
ATOM     24  C   UNL     1     130.872 117.333 131.502  1.00  0.00     0.256 C 
ATOM     25  O   UNL     1     129.889 117.115 132.210  1.00  0.00    -0.269 OA
BRANCH  24  26
ATOM     26  C   UNL     1     131.344 118.736 131.436  1.00  0.00     0.057 A 
ATOM     27  C   UNL     1     131.386 119.477 132.618  1.00  0.00     0.005 A 
ATOM     28  C   UNL     1     131.850 119.281 130.258  1.00  0.00     0.005 A 
ATOM     29  C   UNL     1     131.889 120.775 132.610  1.00  0.00     0.000 A 
ATOM     30  C   UNL     1     132.353 120.580 130.249  1.00  0.00     0.000 A 
ATOM     31  C   UNL     1     132.371 121.327 131.425  1.00  0.00     0.000 A 
ENDBRANCH  24  26
ENDBRANCH  20  24
BRANCH  21  32
ATOM     32  C   UNL     1     133.958 113.149 128.671  1.00  0.00     0.232 C 
ATOM     33  O   UNL     1     133.869 112.675 127.538  1.00  0.00    -0.274 OA
BRANCH  32  34
ATOM     34  C   UNL     1     134.965 112.671 129.652  1.00  0.00     0.080 C 
ATOM     35  C   UNL     1     135.936 113.562 130.213  1.00  0.00     0.010 C 
ATOM     36  C   UNL     1     136.334 112.447 129.298  1.00  0.00     0.010 C 
ENDBRANCH  32  34
ENDBRANCH  21  32
ENDBRANCH  17  18
ENDBRANCH   1  17
TORSDOF 9
ENDMDL
MODEL 6
REMARK VINA RESULT:     -10.2      2.335      4.581
REMARK SMILES [O]C(=O)c1[c][c][c]c(-c2[c][c][c][c]c2S[C][C]2[C]N(C(=O)[C]3[C][C]3)[C][C]N2C(=O)c2[c][c][c][c][c]2)[c]1
REMARK SMILES IDX 15 1 14 2 9 3 10 4 11 5 13 6 12 7 8 8 4 9 5 10 36 11 6 12
REMARK SMILES IDX 7 13 2 14 1 15 3 16 16 17 17 18 18 19 27 20 19 21 26 22
REMARK SMILES IDX 25 23 28 24 29 25 30 26 31 27 35 28 32 29 34 30 33 31 20 32
REMARK SMILES IDX 21 33 22 34 23 35 24 36
REMARK H PARENT
REMARK Flexibility Score: inf
ROOT
ATOM      1  S   UNL     1     129.595 114.322 134.084  1.00  0.00    -0.112 SA
ENDROOT
BRANCH   1   2
ATOM      2  C   UNL     1     128.423 114.279 132.727  1.00  0.00     0.025 A 
ATOM      3  C   UNL     1     128.722 114.500 131.364  1.00  0.00     0.006 A 
ATOM      4  C   UNL     1     127.677 114.395 130.431  1.00  0.00     0.001 A 
ATOM      5  C   UNL     1     126.371 114.105 130.821  1.00  0.00     0.000 A 
ATOM      6  C   UNL     1     127.102 114.003 133.106  1.00  0.00     0.006 A 
ATOM      7  C   UNL     1     126.082 113.915 132.164  1.00  0.00     0.001 A 
BRANCH   3   8
ATOM      8  C   UNL     1     130.060 114.802 130.853  1.00  0.00     0.001 A 
ATOM      9  C   UNL     1     132.206 113.997 130.004  1.00  0.00     0.081 A 
ATOM     10  C   UNL     1     132.695 115.304 130.039  1.00  0.00     0.007 A 
ATOM     11  C   UNL     1     130.881 113.768 130.387  1.00  0.00     0.007 A 
ATOM     12  C   UNL     1     131.879 116.355 130.448  1.00  0.00     0.000 A 
ATOM     13  C   UNL     1     130.573 116.102 130.866  1.00  0.00     0.000 A 
BRANCH   9  14
ATOM     14  C   UNL     1     133.102 112.848 129.671  1.00  0.00     0.387 C 
ATOM     15  O   UNL     1     133.054 112.405 128.481  1.00  0.00    -0.241 OA
ATOM     16  O   UNL     1     133.800 112.363 130.615  1.00  0.00    -0.241 OA
ENDBRANCH   9  14
ENDBRANCH   3   8
ENDBRANCH   1   2
BRANCH   1  17
ATOM     17  C   UNL     1     129.723 116.005 134.230  1.00  0.00     0.087 C 
BRANCH  17  18
ATOM     18  C   UNL     1     129.897 117.396 134.464  1.00  0.00     0.117 C 
ATOM     19  C   UNL     1     130.218 118.312 133.383  1.00  0.00     0.127 C 
ATOM     20  N   UNL     1     130.123 117.944 135.774  1.00  0.00    -0.313 N 
ATOM     21  N   UNL     1     130.761 119.552 133.140  1.00  0.00    -0.315 N 
ATOM     22  C   UNL     1     130.583 119.234 135.663  1.00  0.00     0.129 C 
ATOM     23  C   UNL     1     130.914 120.054 134.400  1.00  0.00     0.128 C 
BRANCH  20  24
ATOM     24  C   UNL     1     129.912 117.192 136.937  1.00  0.00     0.256 C 
ATOM     25  O   UNL     1     130.795 116.718 137.652  1.00  0.00    -0.269 OA
BRANCH  24  26
ATOM     26  C   UNL     1     128.513 116.899 137.328  1.00  0.00     0.057 A 
ATOM     27  C   UNL     1     128.272 116.425 138.619  1.00  0.00     0.005 A 
ATOM     28  C   UNL     1     127.442 117.197 136.487  1.00  0.00     0.005 A 
ATOM     29  C   UNL     1     126.966 116.205 139.048  1.00  0.00     0.000 A 
ATOM     30  C   UNL     1     126.136 116.977 136.917  1.00  0.00     0.000 A 
ATOM     31  C   UNL     1     125.898 116.479 138.196  1.00  0.00     0.000 A 
ENDBRANCH  24  26
ENDBRANCH  20  24
BRANCH  21  32
ATOM     32  C   UNL     1     131.184 120.055 131.914  1.00  0.00     0.232 C 
ATOM     33  O   UNL     1     130.743 119.687 130.825  1.00  0.00    -0.274 OA
BRANCH  32  34
ATOM     34  C   UNL     1     132.191 121.140 132.035  1.00  0.00     0.080 C 
ATOM     35  C   UNL     1     132.415 122.066 130.967  1.00  0.00     0.010 C 
ATOM     36  C   UNL     1     133.462 121.082 131.381  1.00  0.00     0.010 C 
ENDBRANCH  32  34
ENDBRANCH  21  32
ENDBRANCH  17  18
ENDBRANCH   1  17
TORSDOF 9
ENDMDL
MODEL 7
REMARK VINA RESULT:     -10.2      0.669      1.208
REMARK SMILES [O]C(=O)c1[c][c][c]c(-c2[c][c][c][c]c2S[C][C]2[C]N(C(=O)[C]3[C][C]3)[C][C]N2C(=O)c2[c][c][c][c][c]2)[c]1
REMARK SMILES IDX 15 1 14 2 9 3 10 4 11 5 13 6 12 7 8 8 4 9 5 10 36 11 6 12
REMARK SMILES IDX 7 13 2 14 1 15 3 16 16 17 17 18 18 19 27 20 19 21 26 22
REMARK SMILES IDX 25 23 28 24 29 25 30 26 31 27 35 28 32 29 34 30 33 31 20 32
REMARK SMILES IDX 21 33 22 34 23 35 24 36
REMARK H PARENT
REMARK Flexibility Score: inf
ROOT
ATOM      1  S   UNL     1     130.863 115.461 131.331  1.00  0.00    -0.112 SA
ENDROOT
BRANCH   1   2
ATOM      2  C   UNL     1     131.908 116.693 130.550  1.00  0.00     0.025 A 
ATOM      3  C   UNL     1     132.976 116.434 129.662  1.00  0.00     0.006 A 
ATOM      4  C   UNL     1     133.667 117.530 129.121  1.00  0.00     0.001 A 
ATOM      5  C   UNL     1     133.340 118.842 129.454  1.00  0.00     0.000 A 
ATOM      6  C   UNL     1     131.599 118.017 130.888  1.00  0.00     0.006 A 
ATOM      7  C   UNL     1     132.306 119.086 130.346  1.00  0.00     0.001 A 
BRANCH   3   8
ATOM      8  C   UNL     1     133.393 115.095 129.244  1.00  0.00     0.001 A 
ATOM      9  C   UNL     1     134.944 113.220 129.475  1.00  0.00     0.081 A 
ATOM     10  C   UNL     1     134.351 112.611 128.367  1.00  0.00     0.007 A 
ATOM     11  C   UNL     1     134.435 114.445 129.916  1.00  0.00     0.007 A 
ATOM     12  C   UNL     1     133.278 113.214 127.716  1.00  0.00     0.000 A 
ATOM     13  C   UNL     1     132.812 114.456 128.145  1.00  0.00     0.000 A 
BRANCH   9  14
ATOM     14  C   UNL     1     136.163 112.637 130.114  1.00  0.00     0.387 C 
ATOM     15  O   UNL     1     136.815 111.781 129.440  1.00  0.00    -0.241 OA
ATOM     16  O   UNL     1     136.422 112.997 131.304  1.00  0.00    -0.241 OA
ENDBRANCH   9  14
ENDBRANCH   3   8
ENDBRANCH   1   2
BRANCH   1  17
ATOM     17  C   UNL     1     130.290 116.416 132.607  1.00  0.00     0.087 C 
BRANCH  17  18
ATOM     18  C   UNL     1     129.742 117.110 133.720  1.00  0.00     0.117 C 
ATOM     19  C   UNL     1     130.108 118.485 134.010  1.00  0.00     0.127 C 
ATOM     20  N   UNL     1     129.091 116.441 134.813  1.00  0.00    -0.313 N 
ATOM     21  N   UNL     1     130.131 119.408 135.030  1.00  0.00    -0.315 N 
ATOM     22  C   UNL     1     128.968 117.304 135.876  1.00  0.00     0.129 C 
ATOM     23  C   UNL     1     129.465 118.755 136.027  1.00  0.00     0.128 C 
BRANCH  20  24
ATOM     24  C   UNL     1     128.705 115.097 134.734  1.00  0.00     0.256 C 
ATOM     25  O   UNL     1     128.994 114.221 135.548  1.00  0.00    -0.269 OA
BRANCH  24  26
ATOM     26  C   UNL     1     127.917 114.671 133.553  1.00  0.00     0.057 A 
ATOM     27  C   UNL     1     128.299 113.505 132.888  1.00  0.00     0.005 A 
ATOM     28  C   UNL     1     126.752 115.335 133.175  1.00  0.00     0.005 A 
ATOM     29  C   UNL     1     127.543 113.033 131.819  1.00  0.00     0.000 A 
ATOM     30  C   UNL     1     125.996 114.864 132.104  1.00  0.00     0.000 A 
ATOM     31  C   UNL     1     126.392 113.714 131.425  1.00  0.00     0.000 A 
ENDBRANCH  24  26
ENDBRANCH  20  24
BRANCH  21  32
ATOM     32  C   UNL     1     130.816 120.618 135.050  1.00  0.00     0.232 C 
ATOM     33  O   UNL     1     131.327 121.108 136.057  1.00  0.00    -0.274 OA
BRANCH  32  34
ATOM     34  C   UNL     1     130.932 121.255 133.713  1.00  0.00     0.080 C 
ATOM     35  C   UNL     1     132.068 121.017 132.875  1.00  0.00     0.010 C 
ATOM     36  C   UNL     1     131.801 122.365 133.466  1.00  0.00     0.010 C 
ENDBRANCH  32  34
ENDBRANCH  21  32
ENDBRANCH  17  18
ENDBRANCH   1  17
TORSDOF 9
ENDMDL
MODEL 8
REMARK VINA RESULT:     -10.1      2.296      8.549
REMARK SMILES [O]C(=O)c1[c][c][c]c(-c2[c][c][c][c]c2S[C][C]2[C]N(C(=O)[C]3[C][C]3)[C][C]N2C(=O)c2[c][c][c][c][c]2)[c]1
REMARK SMILES IDX 15 1 14 2 9 3 10 4 11 5 13 6 12 7 8 8 4 9 5 10 36 11 6 12
REMARK SMILES IDX 7 13 2 14 1 15 3 16 16 17 17 18 18 19 27 20 19 21 26 22
REMARK SMILES IDX 25 23 28 24 29 25 30 26 31 27 35 28 32 29 34 30 33 31 20 32
REMARK SMILES IDX 21 33 22 34 23 35 24 36
REMARK H PARENT
REMARK Flexibility Score: inf
ROOT
ATOM      1  S   UNL     1     129.956 114.106 133.494  1.00  0.00    -0.112 SA
ENDROOT
BRANCH   1   2
ATOM      2  C   UNL     1     128.248 114.285 132.974  1.00  0.00     0.025 A 
ATOM      3  C   UNL     1     127.259 115.057 133.623  1.00  0.00     0.006 A 
ATOM      4  C   UNL     1     125.977 115.104 133.053  1.00  0.00     0.001 A 
ATOM      5  C   UNL     1     125.662 114.399 131.894  1.00  0.00     0.000 A 
ATOM      6  C   UNL     1     127.914 113.569 131.817  1.00  0.00     0.006 A 
ATOM      7  C   UNL     1     126.633 113.623 131.278  1.00  0.00     0.001 A 
BRANCH   3   8
ATOM      8  C   UNL     1     127.491 115.838 134.839  1.00  0.00     0.001 A 
ATOM      9  C   UNL     1     128.746 117.591 135.991  1.00  0.00     0.081 A 
ATOM     10  C   UNL     1     128.109 117.245 137.184  1.00  0.00     0.007 A 
ATOM     11  C   UNL     1     128.406 116.899 134.826  1.00  0.00     0.007 A 
ATOM     12  C   UNL     1     127.157 116.229 137.210  1.00  0.00     0.000 A 
ATOM     13  C   UNL     1     126.861 115.522 136.045  1.00  0.00     0.000 A 
BRANCH   9  14
ATOM     14  C   UNL     1     129.845 118.603 135.970  1.00  0.00     0.387 C 
ATOM     15  O   UNL     1     130.956 118.259 136.482  1.00  0.00    -0.241 OA
ATOM     16  O   UNL     1     129.571 119.749 135.496  1.00  0.00    -0.241 OA
ENDBRANCH   9  14
ENDBRANCH   3   8
ENDBRANCH   1   2
BRANCH   1  17
ATOM     17  C   UNL     1     130.693 114.632 132.061  1.00  0.00     0.087 C 
BRANCH  17  18
ATOM     18  C   UNL     1     131.398 115.137 130.936  1.00  0.00     0.117 C 
ATOM     19  C   UNL     1     132.296 114.296 130.164  1.00  0.00     0.127 C 
ATOM     20  N   UNL     1     131.565 116.543 130.687  1.00  0.00    -0.313 N 
ATOM     21  N   UNL     1     133.358 114.360 129.292  1.00  0.00    -0.315 N 
ATOM     22  C   UNL     1     132.548 116.734 129.746  1.00  0.00     0.129 C 
ATOM     23  C   UNL     1     133.451 115.700 129.045  1.00  0.00     0.128 C 
BRANCH  20  24
ATOM     24  C   UNL     1     130.817 117.510 131.372  1.00  0.00     0.256 C 
ATOM     25  O   UNL     1     129.698 117.339 131.853  1.00  0.00    -0.269 OA
BRANCH  24  26
ATOM     26  C   UNL     1     131.392 118.870 131.498  1.00  0.00     0.057 A 
ATOM     27  C   UNL     1     131.835 119.512 130.341  1.00  0.00     0.005 A 
ATOM     28  C   UNL     1     131.389 119.554 132.712  1.00  0.00     0.005 A 
ATOM     29  C   UNL     1     132.316 120.816 130.407  1.00  0.00     0.000 A 
ATOM     30  C   UNL     1     131.871 120.860 132.779  1.00  0.00     0.000 A 
ATOM     31  C   UNL     1     132.336 121.489 131.627  1.00  0.00     0.000 A 
ENDBRANCH  24  26
ENDBRANCH  20  24
BRANCH  21  32
ATOM     32  C   UNL     1     134.197 113.317 128.917  1.00  0.00     0.232 C 
ATOM     33  O   UNL     1     133.830 112.325 128.285  1.00  0.00    -0.274 OA
BRANCH  32  34
ATOM     34  C   UNL     1     135.617 113.532 129.297  1.00  0.00     0.080 C 
ATOM     35  C   UNL     1     136.583 112.483 129.182  1.00  0.00     0.010 C 
ATOM     36  C   UNL     1     136.170 113.021 130.514  1.00  0.00     0.010 C 
ENDBRANCH  32  34
ENDBRANCH  21  32
ENDBRANCH  17  18
ENDBRANCH   1  17
TORSDOF 9
ENDMDL
MODEL 9
REMARK VINA RESULT:     -10.0      2.156      4.762
REMARK SMILES [O]C(=O)c1[c][c][c]c(-c2[c][c][c][c]c2S[C][C]2[C]N(C(=O)[C]3[C][C]3)[C][C]N2C(=O)c2[c][c][c][c][c]2)[c]1
REMARK SMILES IDX 15 1 14 2 9 3 10 4 11 5 13 6 12 7 8 8 4 9 5 10 36 11 6 12
REMARK SMILES IDX 7 13 2 14 1 15 3 16 16 17 17 18 18 19 27 20 19 21 26 22
REMARK SMILES IDX 25 23 28 24 29 25 30 26 31 27 35 28 32 29 34 30 33 31 20 32
REMARK SMILES IDX 21 33 22 34 23 35 24 36
REMARK H PARENT
REMARK Flexibility Score: inf
ROOT
ATOM      1  S   UNL     1     129.822 114.433 133.784  1.00  0.00    -0.112 SA
ENDROOT
BRANCH   1   2
ATOM      2  C   UNL     1     128.726 114.147 132.392  1.00  0.00     0.025 A 
ATOM      3  C   UNL     1     129.064 114.287 131.027  1.00  0.00     0.006 A 
ATOM      4  C   UNL     1     128.081 113.988 130.069  1.00  0.00     0.001 A 
ATOM      5  C   UNL     1     126.798 113.586 130.433  1.00  0.00     0.000 A 
ATOM      6  C   UNL     1     127.428 113.756 132.744  1.00  0.00     0.006 A 
ATOM      7  C   UNL     1     126.469 113.476 131.776  1.00  0.00     0.001 A 
BRANCH   3   8
ATOM      8  C   UNL     1     130.383 114.695 130.543  1.00  0.00     0.001 A 
ATOM      9  C   UNL     1     132.580 114.065 129.676  1.00  0.00     0.081 A 
ATOM     10  C   UNL     1     132.986 115.397 129.776  1.00  0.00     0.007 A 
ATOM     11  C   UNL     1     131.270 113.737 130.036  1.00  0.00     0.007 A 
ATOM     12  C   UNL     1     132.104 116.375 130.227  1.00  0.00     0.000 A 
ATOM     13  C   UNL     1     130.814 116.022 130.621  1.00  0.00     0.000 A 
BRANCH   9  14
ATOM     14  C   UNL     1     133.547 112.991 129.297  1.00  0.00     0.387 C 
ATOM     15  O   UNL     1     133.654 112.005 130.091  1.00  0.00    -0.241 OA
ATOM     16  O   UNL     1     134.231 113.170 128.242  1.00  0.00    -0.241 OA
ENDBRANCH   9  14
ENDBRANCH   3   8
ENDBRANCH   1   2
BRANCH   1  17
ATOM     17  C   UNL     1     129.670 116.119 133.858  1.00  0.00     0.087 C 
BRANCH  17  18
ATOM     18  C   UNL     1     129.416 117.514 133.955  1.00  0.00     0.117 C 
ATOM     19  C   UNL     1     130.213 118.482 133.220  1.00  0.00     0.127 C 
ATOM     20  N   UNL     1     128.631 118.092 135.010  1.00  0.00    -0.313 N 
ATOM     21  N   UNL     1     130.569 119.811 133.215  1.00  0.00    -0.315 N 
ATOM     22  C   UNL     1     128.830 119.452 135.045  1.00  0.00     0.129 C 
ATOM     23  C   UNL     1     129.770 120.329 134.194  1.00  0.00     0.128 C 
BRANCH  20  24
ATOM     24  C   UNL     1     127.833 117.308 135.854  1.00  0.00     0.256 C 
ATOM     25  O   UNL     1     127.002 116.479 135.485  1.00  0.00    -0.269 OA
BRANCH  24  26
ATOM     26  C   UNL     1     127.960 117.514 137.316  1.00  0.00     0.057 A 
ATOM     27  C   UNL     1     127.031 116.898 138.155  1.00  0.00     0.005 A 
ATOM     28  C   UNL     1     129.041 118.201 137.865  1.00  0.00     0.005 A 
ATOM     29  C   UNL     1     127.157 117.009 139.536  1.00  0.00     0.000 A 
ATOM     30  C   UNL     1     129.168 118.313 139.248  1.00  0.00     0.000 A 
ATOM     31  C   UNL     1     128.225 117.718 140.083  1.00  0.00     0.000 A 
ENDBRANCH  24  26
ENDBRANCH  20  24
BRANCH  21  32
ATOM     32  C   UNL     1     131.603 120.398 132.495  1.00  0.00     0.232 C 
ATOM     33  O   UNL     1     132.132 121.470 132.792  1.00  0.00    -0.274 OA
BRANCH  32  34
ATOM     34  C   UNL     1     132.067 119.577 131.348  1.00  0.00     0.080 C 
ATOM     35  C   UNL     1     133.237 119.935 130.605  1.00  0.00     0.010 C 
ATOM     36  C   UNL     1     131.874 119.982 129.989  1.00  0.00     0.010 C 
ENDBRANCH  32  34
ENDBRANCH  21  32
ENDBRANCH  17  18
ENDBRANCH   1  17
TORSDOF 9
ENDMDL
