MODEL 1
REMARK VINA RESULT:      -9.8      0.000      0.000
REMARK SMILES CCCCn1c(CCC(=O)N(C)Cc2cc(N)c(Cl)cc2F)nc2cc(S(=O)(=O)N3CCOCC3)ccc21
REMARK SMILES IDX 8 1 9 2 10 3 11 4 12 5 13 6 14 7 21 8 15 9 22 10 20 11 16 12
REMARK SMILES IDX 18 13 19 14 17 15 7 18 6 19 23 20 5 21 24 22 38 23 25 24
REMARK SMILES IDX 37 25 26 26 36 27 4 28 3 29 2 30 1 31 27 32 28 33 29 34
REMARK SMILES IDX 30 35 31 36 35 37 32 38 34 39 33 40
REMARK H PARENT 17 16 17 17
REMARK Flexibility Score: inf
ROOT
ATOM      1  C   UNL     1     127.571 115.738 134.478  1.00  0.00     0.108 C 
ENDROOT
BRANCH   1   2
ATOM      2  C   UNL     1     128.154 115.460 135.850  1.00  0.00     0.223 C 
ATOM      3  O   UNL     1     129.197 114.817 135.977  1.00  0.00    -0.275 OA
BRANCH   2   4
ATOM      4  N   UNL     1     127.457 115.965 136.944  1.00  0.00    -0.341 N 
ATOM      5  C   UNL     1     126.152 115.475 137.371  1.00  0.00     0.147 C 
BRANCH   4   6
ATOM      6  C   UNL     1     128.164 116.846 137.873  1.00  0.00     0.157 C 
BRANCH   6   7
ATOM      7  C   UNL     1     128.830 118.006 137.178  1.00  0.00     0.009 A 
ATOM      8  C   UNL     1     130.199 117.986 136.914  1.00  0.00     0.129 A 
ATOM      9  C   UNL     1     128.084 119.126 136.777  1.00  0.00     0.035 A 
ATOM     10  F   UNL     1     130.934 116.924 137.275  1.00  0.00    -0.207 F 
ATOM     11  C   UNL     1     130.832 119.051 136.283  1.00  0.00     0.062 A 
ATOM     12  C   UNL     1     128.686 120.193 136.096  1.00  0.00     0.051 A 
ATOM     13  C   UNL     1     130.078 120.157 135.895  1.00  0.00     0.066 A 
ATOM     14  Cl  UNL     1     130.893 121.475 135.125  1.00  0.00    -0.082 Cl
BRANCH  12  15
ATOM     15  N   UNL     1     127.925 121.345 135.830  1.00  0.00    -0.398 N 
ATOM     16  H   UNL     1     126.932 121.147 135.722  1.00  0.00     0.156 HD
ATOM     17  H   UNL     1     128.111 122.124 136.454  1.00  0.00     0.156 HD
ENDBRANCH  12  15
ENDBRANCH   6   7
ENDBRANCH   4   6
ENDBRANCH   2   4
ENDBRANCH   1   2
BRANCH   1  18
ATOM     18  C   UNL     1     128.298 116.892 133.790  1.00  0.00     0.085 C 
BRANCH  18  19
ATOM     19  C   UNL     1     129.339 116.410 132.828  1.00  0.00     0.110 A 
ATOM     20  N   UNL     1     129.568 115.153 132.505  1.00  0.00    -0.233 NA
ATOM     21  N   UNL     1     130.203 117.250 132.155  1.00  0.00    -0.328 N 
ATOM     22  C   UNL     1     130.605 115.175 131.610  1.00  0.00     0.090 A 
ATOM     23  C   UNL     1     131.024 116.478 131.364  1.00  0.00     0.068 A 
ATOM     24  C   UNL     1     131.236 114.104 130.965  1.00  0.00     0.052 A 
ATOM     25  C   UNL     1     132.073 116.786 130.486  1.00  0.00     0.030 A 
ATOM     26  C   UNL     1     132.276 114.398 130.075  1.00  0.00     0.085 A 
ATOM     27  C   UNL     1     132.696 115.713 129.842  1.00  0.00     0.024 A 
BRANCH  21  28
ATOM     28  C   UNL     1     130.242 118.700 132.250  1.00  0.00     0.124 C 
BRANCH  28  29
ATOM     29  C   UNL     1     131.673 119.228 132.349  1.00  0.00     0.022 C 
BRANCH  29  30
ATOM     30  C   UNL     1     131.909 120.486 131.511  1.00  0.00    -0.002 C 
ATOM     31  C   UNL     1     133.042 120.339 130.507  1.00  0.00     0.004 C 
ENDBRANCH  29  30
ENDBRANCH  28  29
ENDBRANCH  21  28
BRANCH  26  32
ATOM     32  S   UNL     1     133.105 113.077 129.231  1.00  0.00     0.243 S 
ATOM     33  O   UNL     1     132.445 112.850 127.964  1.00  0.00    -0.207 OA
ATOM     34  O   UNL     1     133.276 112.002 130.186  1.00  0.00    -0.207 OA
BRANCH  32  35
ATOM     35  N   UNL     1     134.636 113.750 128.911  1.00  0.00    -0.193 NA
ATOM     36  C   UNL     1     135.635 112.870 128.222  1.00  0.00     0.131 C 
ATOM     37  C   UNL     1     135.274 114.448 130.071  1.00  0.00     0.131 C 
ATOM     38  C   UNL     1     136.386 111.967 129.207  1.00  0.00     0.177 C 
ATOM     39  C   UNL     1     135.996 113.459 130.989  1.00  0.00     0.177 C 
ATOM     40  O   UNL     1     136.993 112.729 130.261  1.00  0.00    -0.379 OA
ENDBRANCH  32  35
ENDBRANCH  26  32
ENDBRANCH  18  19
ENDBRANCH   1  18
TORSDOF 12
ENDMDL
MODEL 2
REMARK VINA RESULT:      -9.7      2.324      3.955
REMARK SMILES CCCCn1c(CCC(=O)N(C)Cc2cc(N)c(Cl)cc2F)nc2cc(S(=O)(=O)N3CCOCC3)ccc21
REMARK SMILES IDX 8 1 9 2 10 3 11 4 12 5 13 6 14 7 21 8 15 9 22 10 20 11 16 12
REMARK SMILES IDX 18 13 19 14 17 15 7 18 6 19 23 20 5 21 24 22 38 23 25 24
REMARK SMILES IDX 37 25 26 26 36 27 4 28 3 29 2 30 1 31 27 32 28 33 29 34
REMARK SMILES IDX 30 35 31 36 35 37 32 38 34 39 33 40
REMARK H PARENT 17 16 17 17
REMARK Flexibility Score: inf
ROOT
ATOM      1  C   UNL     1     131.030 119.465 133.428  1.00  0.00     0.108 C 
ENDROOT
BRANCH   1   2
ATOM      2  C   UNL     1     129.889 120.159 134.146  1.00  0.00     0.223 C 
ATOM      3  O   UNL     1     129.081 120.855 133.528  1.00  0.00    -0.275 OA
BRANCH   2   4
ATOM      4  N   UNL     1     129.801 119.968 135.522  1.00  0.00    -0.341 N 
ATOM      5  C   UNL     1     128.991 120.798 136.406  1.00  0.00     0.147 C 
BRANCH   4   6
ATOM      6  C   UNL     1     130.331 118.729 136.088  1.00  0.00     0.157 C 
BRANCH   6   7
ATOM      7  C   UNL     1     129.267 117.891 136.748  1.00  0.00     0.009 A 
ATOM      8  C   UNL     1     128.596 116.898 136.033  1.00  0.00     0.129 A 
ATOM      9  C   UNL     1     128.933 118.088 138.099  1.00  0.00     0.035 A 
ATOM     10  F   UNL     1     128.902 116.680 134.746  1.00  0.00    -0.207 F 
ATOM     11  C   UNL     1     127.604 116.124 136.623  1.00  0.00     0.062 A 
ATOM     12  C   UNL     1     127.972 117.289 138.733  1.00  0.00     0.051 A 
ATOM     13  C   UNL     1     127.283 116.334 137.963  1.00  0.00     0.066 A 
ATOM     14  Cl  UNL     1     126.035 115.366 138.669  1.00  0.00    -0.082 Cl
BRANCH  12  15
ATOM     15  N   UNL     1     127.583 117.609 140.046  1.00  0.00    -0.398 N 
ATOM     16  H   UNL     1     127.671 118.602 140.254  1.00  0.00     0.156 HD
ATOM     17  H   UNL     1     126.687 117.221 140.324  1.00  0.00     0.156 HD
ENDBRANCH  12  15
ENDBRANCH   6   7
ENDBRANCH   4   6
ENDBRANCH   2   4
ENDBRANCH   1   2
BRANCH   1  18
ATOM     18  C   UNL     1     130.790 119.416 131.921  1.00  0.00     0.085 C 
BRANCH  18  19
ATOM     19  C   UNL     1     131.152 118.087 131.335  1.00  0.00     0.110 A 
ATOM     20  N   UNL     1     132.279 117.798 130.714  1.00  0.00    -0.233 NA
ATOM     21  N   UNL     1     130.323 116.984 131.375  1.00  0.00    -0.328 N 
ATOM     22  C   UNL     1     132.178 116.484 130.337  1.00  0.00     0.090 A 
ATOM     23  C   UNL     1     130.963 115.941 130.743  1.00  0.00     0.068 A 
ATOM     24  C   UNL     1     133.101 115.693 129.643  1.00  0.00     0.052 A 
ATOM     25  C   UNL     1     130.602 114.612 130.484  1.00  0.00     0.030 A 
ATOM     26  C   UNL     1     132.759 114.360 129.391  1.00  0.00     0.085 A 
ATOM     27  C   UNL     1     131.529 113.826 129.794  1.00  0.00     0.024 A 
BRANCH  21  28
ATOM     28  C   UNL     1     129.005 116.920 131.984  1.00  0.00     0.124 C 
BRANCH  28  29
ATOM     29  C   UNL     1     128.027 116.095 131.147  1.00  0.00     0.022 C 
BRANCH  29  30
ATOM     30  C   UNL     1     127.141 115.176 131.991  1.00  0.00    -0.002 C 
ATOM     31  C   UNL     1     127.038 113.763 131.436  1.00  0.00     0.004 C 
ENDBRANCH  29  30
ENDBRANCH  28  29
ENDBRANCH  21  28
BRANCH  26  32
ATOM     32  S   UNL     1     133.896 113.314 128.518  1.00  0.00     0.243 S 
ATOM     33  O   UNL     1     133.727 113.529 127.098  1.00  0.00    -0.207 OA
ATOM     34  O   UNL     1     133.781 111.989 129.091  1.00  0.00    -0.207 OA
BRANCH  32  35
ATOM     35  N   UNL     1     135.406 113.958 128.970  1.00  0.00    -0.193 NA
ATOM     36  C   UNL     1     136.626 113.268 128.439  1.00  0.00     0.131 C 
ATOM     37  C   UNL     1     135.563 114.233 130.434  1.00  0.00     0.131 C 
ATOM     38  C   UNL     1     137.031 112.065 129.300  1.00  0.00     0.177 C 
ATOM     39  C   UNL     1     135.969 112.971 131.198  1.00  0.00     0.177 C 
ATOM     40  O   UNL     1     137.193 112.435 130.676  1.00  0.00    -0.379 OA
ENDBRANCH  32  35
ENDBRANCH  26  32
ENDBRANCH  18  19
ENDBRANCH   1  18
TORSDOF 12
ENDMDL
MODEL 3
REMARK VINA RESULT:      -9.3      1.040      1.070
REMARK SMILES CCCCn1c(CCC(=O)N(C)Cc2cc(N)c(Cl)cc2F)nc2cc(S(=O)(=O)N3CCOCC3)ccc21
REMARK SMILES IDX 8 1 9 2 10 3 11 4 12 5 13 6 14 7 21 8 15 9 22 10 20 11 16 12
REMARK SMILES IDX 18 13 19 14 17 15 7 18 6 19 23 20 5 21 24 22 38 23 25 24
REMARK SMILES IDX 37 25 26 26 36 27 4 28 3 29 2 30 1 31 27 32 28 33 29 34
REMARK SMILES IDX 30 35 31 36 35 37 32 38 34 39 33 40
REMARK H PARENT 17 16 17 17
REMARK Flexibility Score: inf
ROOT
ATOM      1  C   UNL     1     128.810 115.630 134.664  1.00  0.00     0.108 C 
ENDROOT
BRANCH   1   2
ATOM      2  C   UNL     1     129.118 116.168 136.048  1.00  0.00     0.223 C 
ATOM      3  O   UNL     1     130.277 116.414 136.390  1.00  0.00    -0.275 OA
BRANCH   2   4
ATOM      4  N   UNL     1     128.036 116.370 136.901  1.00  0.00    -0.341 N 
ATOM      5  C   UNL     1     127.428 115.315 137.702  1.00  0.00     0.147 C 
BRANCH   4   6
ATOM      6  C   UNL     1     127.646 117.743 137.217  1.00  0.00     0.157 C 
BRANCH   6   7
ATOM      7  C   UNL     1     128.584 118.763 136.625  1.00  0.00     0.009 A 
ATOM      8  C   UNL     1     129.774 119.097 137.273  1.00  0.00     0.129 A 
ATOM      9  C   UNL     1     128.285 119.392 135.405  1.00  0.00     0.035 A 
ATOM     10  F   UNL     1     130.092 118.505 138.433  1.00  0.00    -0.207 F 
ATOM     11  C   UNL     1     130.646 120.043 136.747  1.00  0.00     0.062 A 
ATOM     12  C   UNL     1     129.168 120.313 134.826  1.00  0.00     0.051 A 
ATOM     13  C   UNL     1     130.331 120.660 135.537  1.00  0.00     0.066 A 
ATOM     14  Cl  UNL     1     131.427 121.844 134.912  1.00  0.00    -0.082 Cl
BRANCH  12  15
ATOM     15  N   UNL     1     128.765 121.009 133.673  1.00  0.00    -0.398 N 
ATOM     16  H   UNL     1     128.916 120.477 132.817  1.00  0.00     0.156 HD
ATOM     17  H   UNL     1     127.837 121.415 133.731  1.00  0.00     0.156 HD
ENDBRANCH  12  15
ENDBRANCH   6   7
ENDBRANCH   4   6
ENDBRANCH   2   4
ENDBRANCH   1   2
BRANCH   1  18
ATOM     18  C   UNL     1     128.977 116.712 133.599  1.00  0.00     0.085 C 
BRANCH  18  19
ATOM     19  C   UNL     1     129.974 116.323 132.552  1.00  0.00     0.110 A 
ATOM     20  N   UNL     1     130.284 115.091 132.201  1.00  0.00    -0.233 NA
ATOM     21  N   UNL     1     130.703 117.236 131.817  1.00  0.00    -0.328 N 
ATOM     22  C   UNL     1     131.239 115.204 131.224  1.00  0.00     0.090 A 
ATOM     23  C   UNL     1     131.521 116.539 130.955  1.00  0.00     0.068 A 
ATOM     24  C   UNL     1     131.906 114.193 130.522  1.00  0.00     0.052 A 
ATOM     25  C   UNL     1     132.464 116.938 129.998  1.00  0.00     0.030 A 
ATOM     26  C   UNL     1     132.840 114.578 129.553  1.00  0.00     0.085 A 
ATOM     27  C   UNL     1     133.123 115.924 129.297  1.00  0.00     0.024 A 
BRANCH  21  28
ATOM     28  C   UNL     1     130.624 118.684 131.920  1.00  0.00     0.124 C 
BRANCH  28  29
ATOM     29  C   UNL     1     131.998 119.342 131.798  1.00  0.00     0.022 C 
BRANCH  29  30
ATOM     30  C   UNL     1     131.967 120.657 131.016  1.00  0.00    -0.002 C 
ATOM     31  C   UNL     1     132.876 121.727 131.599  1.00  0.00     0.004 C 
ENDBRANCH  29  30
ENDBRANCH  28  29
ENDBRANCH  21  28
BRANCH  26  32
ATOM     32  S   UNL     1     133.709 113.334 128.633  1.00  0.00     0.243 S 
ATOM     33  O   UNL     1     133.345 113.450 127.239  1.00  0.00    -0.207 OA
ATOM     34  O   UNL     1     133.544 112.084 129.345  1.00  0.00    -0.207 OA
BRANCH  32  35
ATOM     35  N   UNL     1     135.331 113.825 128.795  1.00  0.00    -0.193 NA
ATOM     36  C   UNL     1     136.383 112.847 128.370  1.00  0.00     0.131 C 
ATOM     37  C   UNL     1     135.682 114.419 130.124  1.00  0.00     0.131 C 
ATOM     38  C   UNL     1     136.718 111.840 129.477  1.00  0.00     0.177 C 
ATOM     39  C   UNL     1     135.999 113.332 131.153  1.00  0.00     0.177 C 
ATOM     40  O   UNL     1     137.078 112.503 130.698  1.00  0.00    -0.379 OA
ENDBRANCH  32  35
ENDBRANCH  26  32
ENDBRANCH  18  19
ENDBRANCH   1  18
TORSDOF 12
ENDMDL
MODEL 4
REMARK VINA RESULT:      -9.2      2.308      4.150
REMARK SMILES CCCCn1c(CCC(=O)N(C)Cc2cc(N)c(Cl)cc2F)nc2cc(S(=O)(=O)N3CCOCC3)ccc21
REMARK SMILES IDX 8 1 9 2 10 3 11 4 12 5 13 6 14 7 21 8 15 9 22 10 20 11 16 12
REMARK SMILES IDX 18 13 19 14 17 15 7 18 6 19 23 20 5 21 24 22 38 23 25 24
REMARK SMILES IDX 37 25 26 26 36 27 4 28 3 29 2 30 1 31 27 32 28 33 29 34
REMARK SMILES IDX 30 35 31 36 35 37 32 38 34 39 33 40
REMARK H PARENT 17 16 17 17
REMARK Flexibility Score: inf
ROOT
ATOM      1  C   UNL     1     129.742 119.838 133.036  1.00  0.00     0.108 C 
ENDROOT
BRANCH   1   2
ATOM      2  C   UNL     1     129.269 120.708 134.186  1.00  0.00     0.223 C 
ATOM      3  O   UNL     1     128.139 121.200 134.186  1.00  0.00    -0.275 OA
BRANCH   2   4
ATOM      4  N   UNL     1     130.167 120.915 135.229  1.00  0.00    -0.341 N 
ATOM      5  C   UNL     1     131.435 121.618 135.079  1.00  0.00     0.147 C 
BRANCH   4   6
ATOM      6  C   UNL     1     129.718 120.655 136.596  1.00  0.00     0.157 C 
BRANCH   6   7
ATOM      7  C   UNL     1     129.204 119.250 136.779  1.00  0.00     0.009 A 
ATOM      8  C   UNL     1     130.065 118.157 136.674  1.00  0.00     0.129 A 
ATOM      9  C   UNL     1     127.850 119.013 137.067  1.00  0.00     0.035 A 
ATOM     10  F   UNL     1     131.365 118.354 136.412  1.00  0.00    -0.207 F 
ATOM     11  C   UNL     1     129.606 116.855 136.830  1.00  0.00     0.062 A 
ATOM     12  C   UNL     1     127.369 117.714 137.278  1.00  0.00     0.051 A 
ATOM     13  C   UNL     1     128.258 116.637 137.111  1.00  0.00     0.066 A 
ATOM     14  Cl  UNL     1     127.710 115.005 137.286  1.00  0.00    -0.082 Cl
BRANCH  12  15
ATOM     15  N   UNL     1     125.985 117.519 137.435  1.00  0.00    -0.398 N 
ATOM     16  H   UNL     1     125.711 117.394 138.408  1.00  0.00     0.156 HD
ATOM     17  H   UNL     1     125.408 118.194 136.943  1.00  0.00     0.156 HD
ENDBRANCH  12  15
ENDBRANCH   6   7
ENDBRANCH   4   6
ENDBRANCH   2   4
ENDBRANCH   1   2
BRANCH   1  18
ATOM     18  C   UNL     1     129.116 118.446 133.099  1.00  0.00     0.085 C 
BRANCH  18  19
ATOM     19  C   UNL     1     129.832 117.465 132.226  1.00  0.00     0.110 A 
ATOM     20  N   UNL     1     131.051 117.607 131.744  1.00  0.00    -0.233 NA
ATOM     21  N   UNL     1     129.282 116.269 131.811  1.00  0.00    -0.328 N 
ATOM     22  C   UNL     1     131.296 116.485 130.995  1.00  0.00     0.090 A 
ATOM     23  C   UNL     1     130.206 115.621 131.022  1.00  0.00     0.068 A 
ATOM     24  C   UNL     1     132.442 116.145 130.266  1.00  0.00     0.052 A 
ATOM     25  C   UNL     1     130.191 114.398 130.337  1.00  0.00     0.030 A 
ATOM     26  C   UNL     1     132.445 114.920 129.589  1.00  0.00     0.085 A 
ATOM     27  C   UNL     1     131.339 114.062 129.614  1.00  0.00     0.024 A 
BRANCH  21  28
ATOM     28  C   UNL     1     127.961 115.766 132.150  1.00  0.00     0.124 C 
BRANCH  28  29
ATOM     29  C   UNL     1     128.031 114.580 133.112  1.00  0.00     0.022 C 
BRANCH  29  30
ATOM     30  C   UNL     1     126.940 113.538 132.861  1.00  0.00    -0.002 C 
ATOM     31  C   UNL     1     126.955 112.977 131.447  1.00  0.00     0.004 C 
ENDBRANCH  29  30
ENDBRANCH  28  29
ENDBRANCH  21  28
BRANCH  26  32
ATOM     32  S   UNL     1     133.874 114.440 128.655  1.00  0.00     0.243 S 
ATOM     33  O   UNL     1     134.967 115.324 128.993  1.00  0.00    -0.207 OA
ATOM     34  O   UNL     1     133.448 114.272 127.281  1.00  0.00    -0.207 OA
BRANCH  32  35
ATOM     35  N   UNL     1     134.229 112.901 129.290  1.00  0.00    -0.193 NA
ATOM     36  C   UNL     1     134.476 112.815 130.766  1.00  0.00     0.131 C 
ATOM     37  C   UNL     1     135.276 112.135 128.543  1.00  0.00     0.131 C 
ATOM     38  C   UNL     1     135.928 113.151 131.129  1.00  0.00     0.177 C 
ATOM     39  C   UNL     1     136.684 112.545 128.981  1.00  0.00     0.177 C 
ATOM     40  O   UNL     1     136.855 112.342 130.391  1.00  0.00    -0.379 OA
ENDBRANCH  32  35
ENDBRANCH  26  32
ENDBRANCH  18  19
ENDBRANCH   1  18
TORSDOF 12
ENDMDL
MODEL 5
REMARK VINA RESULT:      -9.2      2.031      2.517
REMARK SMILES CCCCn1c(CCC(=O)N(C)Cc2cc(N)c(Cl)cc2F)nc2cc(S(=O)(=O)N3CCOCC3)ccc21
REMARK SMILES IDX 8 1 9 2 10 3 11 4 12 5 13 6 14 7 21 8 15 9 22 10 20 11 16 12
REMARK SMILES IDX 18 13 19 14 17 15 7 18 6 19 23 20 5 21 24 22 38 23 25 24
REMARK SMILES IDX 37 25 26 26 36 27 4 28 3 29 2 30 1 31 27 32 28 33 29 34
REMARK SMILES IDX 30 35 31 36 35 37 32 38 34 39 33 40
REMARK H PARENT 17 16 17 17
REMARK Flexibility Score: inf
ROOT
ATOM      1  C   UNL     1     129.412 116.959 134.488  1.00  0.00     0.108 C 
ENDROOT
BRANCH   1   2
ATOM      2  C   UNL     1     128.581 115.715 134.738  1.00  0.00     0.223 C 
ATOM      3  O   UNL     1     129.077 114.714 135.260  1.00  0.00    -0.275 OA
BRANCH   2   4
ATOM      4  N   UNL     1     127.244 115.763 134.352  1.00  0.00    -0.341 N 
ATOM      5  C   UNL     1     126.770 115.401 133.022  1.00  0.00     0.147 C 
BRANCH   4   6
ATOM      6  C   UNL     1     126.227 115.930 135.389  1.00  0.00     0.157 C 
BRANCH   6   7
ATOM      7  C   UNL     1     126.787 116.510 136.662  1.00  0.00     0.009 A 
ATOM      8  C   UNL     1     126.618 115.850 137.880  1.00  0.00     0.129 A 
ATOM      9  C   UNL     1     127.496 117.722 136.648  1.00  0.00     0.035 A 
ATOM     10  F   UNL     1     125.955 114.685 137.922  1.00  0.00    -0.207 F 
ATOM     11  C   UNL     1     127.118 116.375 139.065  1.00  0.00     0.062 A 
ATOM     12  C   UNL     1     128.055 118.250 137.820  1.00  0.00     0.051 A 
ATOM     13  C   UNL     1     127.817 117.581 139.034  1.00  0.00     0.066 A 
ATOM     14  Cl  UNL     1     128.417 118.219 140.526  1.00  0.00    -0.082 Cl
BRANCH  12  15
ATOM     15  N   UNL     1     128.643 119.527 137.776  1.00  0.00    -0.398 N 
ATOM     16  H   UNL     1     128.178 120.154 137.123  1.00  0.00     0.156 HD
ATOM     17  H   UNL     1     128.803 119.946 138.686  1.00  0.00     0.156 HD
ENDBRANCH  12  15
ENDBRANCH   6   7
ENDBRANCH   4   6
ENDBRANCH   2   4
ENDBRANCH   1   2
BRANCH   1  18
ATOM     18  C   UNL     1     129.185 117.504 133.080  1.00  0.00     0.085 C 
BRANCH  18  19
ATOM     19  C   UNL     1     130.186 116.976 132.102  1.00  0.00     0.110 A 
ATOM     20  N   UNL     1     130.430 115.703 131.857  1.00  0.00    -0.233 NA
ATOM     21  N   UNL     1     130.994 117.782 131.325  1.00  0.00    -0.328 N 
ATOM     22  C   UNL     1     131.420 115.682 130.909  1.00  0.00     0.090 A 
ATOM     23  C   UNL     1     131.792 116.972 130.549  1.00  0.00     0.068 A 
ATOM     24  C   UNL     1     132.043 114.580 130.311  1.00  0.00     0.052 A 
ATOM     25  C   UNL     1     132.787 117.237 129.597  1.00  0.00     0.030 A 
ATOM     26  C   UNL     1     133.028 114.831 129.349  1.00  0.00     0.085 A 
ATOM     27  C   UNL     1     133.403 116.134 129.000  1.00  0.00     0.024 A 
BRANCH  21  28
ATOM     28  C   UNL     1     131.001 119.236 131.313  1.00  0.00     0.124 C 
BRANCH  28  29
ATOM     29  C   UNL     1     131.057 119.819 132.725  1.00  0.00     0.022 C 
BRANCH  29  30
ATOM     30  C   UNL     1     131.964 121.046 132.834  1.00  0.00    -0.002 C 
ATOM     31  C   UNL     1     132.673 121.389 131.533  1.00  0.00     0.004 C 
ENDBRANCH  29  30
ENDBRANCH  28  29
ENDBRANCH  21  28
BRANCH  26  32
ATOM     32  S   UNL     1     133.846 113.469 128.558  1.00  0.00     0.243 S 
ATOM     33  O   UNL     1     133.556 113.513 127.142  1.00  0.00    -0.207 OA
ATOM     34  O   UNL     1     133.557 112.286 129.342  1.00  0.00    -0.207 OA
BRANCH  32  35
ATOM     35  N   UNL     1     135.490 113.856 128.769  1.00  0.00    -0.193 NA
ATOM     36  C   UNL     1     136.490 112.802 128.400  1.00  0.00     0.131 C 
ATOM     37  C   UNL     1     135.833 114.453 130.099  1.00  0.00     0.131 C 
ATOM     38  C   UNL     1     136.718 111.799 129.538  1.00  0.00     0.177 C 
ATOM     39  C   UNL     1     136.041 113.369 131.159  1.00  0.00     0.177 C 
ATOM     40  O   UNL     1     137.078 112.462 130.759  1.00  0.00    -0.379 OA
ENDBRANCH  32  35
ENDBRANCH  26  32
ENDBRANCH  18  19
ENDBRANCH   1  18
TORSDOF 12
ENDMDL
MODEL 6
REMARK VINA RESULT:      -9.1      2.141      3.174
REMARK SMILES CCCCn1c(CCC(=O)N(C)Cc2cc(N)c(Cl)cc2F)nc2cc(S(=O)(=O)N3CCOCC3)ccc21
REMARK SMILES IDX 8 1 9 2 10 3 11 4 12 5 13 6 14 7 21 8 15 9 22 10 20 11 16 12
REMARK SMILES IDX 18 13 19 14 17 15 7 18 6 19 23 20 5 21 24 22 38 23 25 24
REMARK SMILES IDX 37 25 26 26 36 27 4 28 3 29 2 30 1 31 27 32 28 33 29 34
REMARK SMILES IDX 30 35 31 36 35 37 32 38 34 39 33 40
REMARK H PARENT 17 16 17 17
REMARK Flexibility Score: inf
ROOT
ATOM      1  C   UNL     1     129.911 118.537 134.885  1.00  0.00     0.108 C 
ENDROOT
BRANCH   1   2
ATOM      2  C   UNL     1     128.890 119.019 135.897  1.00  0.00     0.223 C 
ATOM      3  O   UNL     1     128.372 120.133 135.794  1.00  0.00    -0.275 OA
BRANCH   2   4
ATOM      4  N   UNL     1     128.571 118.148 136.935  1.00  0.00    -0.341 N 
ATOM      5  C   UNL     1     129.104 118.267 138.287  1.00  0.00     0.147 C 
BRANCH   4   6
ATOM      6  C   UNL     1     127.454 117.223 136.749  1.00  0.00     0.157 C 
BRANCH   6   7
ATOM      7  C   UNL     1     127.686 116.253 135.619  1.00  0.00     0.009 A 
ATOM      8  C   UNL     1     128.814 115.432 135.605  1.00  0.00     0.129 A 
ATOM      9  C   UNL     1     126.769 116.151 134.560  1.00  0.00     0.035 A 
ATOM     10  F   UNL     1     129.701 115.499 136.608  1.00  0.00    -0.207 F 
ATOM     11  C   UNL     1     129.050 114.540 134.566  1.00  0.00     0.062 A 
ATOM     12  C   UNL     1     126.954 115.226 133.524  1.00  0.00     0.051 A 
ATOM     13  C   UNL     1     128.131 114.454 133.522  1.00  0.00     0.066 A 
ATOM     14  Cl  UNL     1     128.455 113.345 132.233  1.00  0.00    -0.082 Cl
BRANCH  12  15
ATOM     15  N   UNL     1     126.078 115.252 132.425  1.00  0.00    -0.398 N 
ATOM     16  H   UNL     1     126.066 116.152 131.949  1.00  0.00     0.156 HD
ATOM     17  H   UNL     1     126.178 114.466 131.790  1.00  0.00     0.156 HD
ENDBRANCH  12  15
ENDBRANCH   6   7
ENDBRANCH   4   6
ENDBRANCH   2   4
ENDBRANCH   1   2
BRANCH   1  18
ATOM     18  C   UNL     1     129.341 118.562 133.468  1.00  0.00     0.085 C 
BRANCH  18  19
ATOM     19  C   UNL     1     130.203 117.814 132.500  1.00  0.00     0.110 A 
ATOM     20  N   UNL     1     130.308 116.503 132.413  1.00  0.00    -0.233 NA
ATOM     21  N   UNL     1     131.011 118.429 131.565  1.00  0.00    -0.328 N 
ATOM     22  C   UNL     1     131.207 116.260 131.407  1.00  0.00     0.090 A 
ATOM     23  C   UNL     1     131.664 117.449 130.849  1.00  0.00     0.068 A 
ATOM     24  C   UNL     1     131.675 115.034 130.920  1.00  0.00     0.052 A 
ATOM     25  C   UNL     1     132.593 117.488 129.801  1.00  0.00     0.030 A 
ATOM     26  C   UNL     1     132.593 115.058 129.863  1.00  0.00     0.085 A 
ATOM     27  C   UNL     1     133.053 116.261 129.315  1.00  0.00     0.024 A 
BRANCH  21  28
ATOM     28  C   UNL     1     131.150 119.861 131.356  1.00  0.00     0.124 C 
BRANCH  28  29
ATOM     29  C   UNL     1     131.487 120.597 132.652  1.00  0.00     0.022 C 
BRANCH  29  30
ATOM     30  C   UNL     1     132.593 121.640 132.480  1.00  0.00    -0.002 C 
ATOM     31  C   UNL     1     132.859 122.004 131.028  1.00  0.00     0.004 C 
ENDBRANCH  29  30
ENDBRANCH  28  29
ENDBRANCH  21  28
BRANCH  26  32
ATOM     32  S   UNL     1     133.212 113.531 129.207  1.00  0.00     0.243 S 
ATOM     33  O   UNL     1     132.555 113.268 127.946  1.00  0.00    -0.207 OA
ATOM     34  O   UNL     1     133.179 112.561 130.282  1.00  0.00    -0.207 OA
BRANCH  32  35
ATOM     35  N   UNL     1     134.841 113.905 128.882  1.00  0.00    -0.193 NA
ATOM     36  C   UNL     1     135.683 112.818 128.286  1.00  0.00     0.131 C 
ATOM     37  C   UNL     1     135.573 114.569 130.007  1.00  0.00     0.131 C 
ATOM     38  C   UNL     1     136.252 111.876 129.354  1.00  0.00     0.177 C 
ATOM     39  C   UNL     1     136.099 113.543 131.013  1.00  0.00     0.177 C 
ATOM     40  O   UNL     1     136.966 112.600 130.367  1.00  0.00    -0.379 OA
ENDBRANCH  32  35
ENDBRANCH  26  32
ENDBRANCH  18  19
ENDBRANCH   1  18
TORSDOF 12
ENDMDL
MODEL 7
REMARK VINA RESULT:      -9.1      2.351      4.080
REMARK SMILES CCCCn1c(CCC(=O)N(C)Cc2cc(N)c(Cl)cc2F)nc2cc(S(=O)(=O)N3CCOCC3)ccc21
REMARK SMILES IDX 8 1 9 2 10 3 11 4 12 5 13 6 14 7 21 8 15 9 22 10 20 11 16 12
REMARK SMILES IDX 18 13 19 14 17 15 7 18 6 19 23 20 5 21 24 22 38 23 25 24
REMARK SMILES IDX 37 25 26 26 36 27 4 28 3 29 2 30 1 31 27 32 28 33 29 34
REMARK SMILES IDX 30 35 31 36 35 37 32 38 34 39 33 40
REMARK H PARENT 17 16 17 17
REMARK Flexibility Score: inf
ROOT
ATOM      1  C   UNL     1     130.658 119.408 133.725  1.00  0.00     0.108 C 
ENDROOT
BRANCH   1   2
ATOM      2  C   UNL     1     130.065 120.459 134.644  1.00  0.00     0.223 C 
ATOM      3  O   UNL     1     129.894 121.617 134.257  1.00  0.00    -0.275 OA
BRANCH   2   4
ATOM      4  N   UNL     1     129.728 120.051 135.932  1.00  0.00    -0.341 N 
ATOM      5  C   UNL     1     128.705 120.698 136.745  1.00  0.00     0.147 C 
BRANCH   4   6
ATOM      6  C   UNL     1     130.224 118.760 136.405  1.00  0.00     0.157 C 
BRANCH   6   7
ATOM      7  C   UNL     1     129.134 117.901 136.993  1.00  0.00     0.009 A 
ATOM      8  C   UNL     1     129.031 117.728 138.374  1.00  0.00     0.129 A 
ATOM      9  C   UNL     1     128.196 117.263 136.165  1.00  0.00     0.035 A 
ATOM     10  F   UNL     1     129.906 118.334 139.190  1.00  0.00    -0.207 F 
ATOM     11  C   UNL     1     128.040 116.931 138.934  1.00  0.00     0.062 A 
ATOM     12  C   UNL     1     127.156 116.494 136.703  1.00  0.00     0.051 A 
ATOM     13  C   UNL     1     127.119 116.302 138.097  1.00  0.00     0.066 A 
ATOM     14  Cl  UNL     1     125.903 115.305 138.818  1.00  0.00    -0.082 Cl
BRANCH  12  15
ATOM     15  N   UNL     1     126.322 115.773 135.830  1.00  0.00    -0.398 N 
ATOM     16  H   UNL     1     126.777 115.543 134.949  1.00  0.00     0.156 HD
ATOM     17  H   UNL     1     125.855 114.980 136.256  1.00  0.00     0.156 HD
ENDBRANCH  12  15
ENDBRANCH   6   7
ENDBRANCH   4   6
ENDBRANCH   2   4
ENDBRANCH   1   2
BRANCH   1  18
ATOM     18  C   UNL     1     129.614 118.879 132.743  1.00  0.00     0.085 C 
BRANCH  18  19
ATOM     19  C   UNL     1     130.105 117.684 131.988  1.00  0.00     0.110 A 
ATOM     20  N   UNL     1     131.303 117.546 131.455  1.00  0.00    -0.233 NA
ATOM     21  N   UNL     1     129.338 116.560 131.754  1.00  0.00    -0.328 N 
ATOM     22  C   UNL     1     131.313 116.313 130.856  1.00  0.00     0.090 A 
ATOM     23  C   UNL     1     130.095 115.665 131.032  1.00  0.00     0.068 A 
ATOM     24  C   UNL     1     132.343 115.686 130.146  1.00  0.00     0.052 A 
ATOM     25  C   UNL     1     129.835 114.387 130.518  1.00  0.00     0.030 A 
ATOM     26  C   UNL     1     132.101 114.404 129.640  1.00  0.00     0.085 A 
ATOM     27  C   UNL     1     130.868 113.764 129.813  1.00  0.00     0.024 A 
BRANCH  21  28
ATOM     28  C   UNL     1     127.971 116.345 132.198  1.00  0.00     0.124 C 
BRANCH  28  29
ATOM     29  C   UNL     1     127.795 114.982 132.868  1.00  0.00     0.022 C 
BRANCH  29  30
ATOM     30  C   UNL     1     126.502 114.274 132.459  1.00  0.00    -0.002 C 
ATOM     31  C   UNL     1     126.722 113.139 131.470  1.00  0.00     0.004 C 
ENDBRANCH  29  30
ENDBRANCH  28  29
ENDBRANCH  21  28
BRANCH  26  32
ATOM     32  S   UNL     1     133.376 113.565 128.735  1.00  0.00     0.243 S 
ATOM     33  O   UNL     1     133.623 114.286 127.506  1.00  0.00    -0.207 OA
ATOM     34  O   UNL     1     133.031 112.159 128.718  1.00  0.00    -0.207 OA
BRANCH  32  35
ATOM     35  N   UNL     1     134.734 113.765 129.743  1.00  0.00    -0.193 NA
ATOM     36  C   UNL     1     136.031 114.110 129.077  1.00  0.00     0.131 C 
ATOM     37  C   UNL     1     134.941 112.675 130.748  1.00  0.00     0.131 C 
ATOM     38  C   UNL     1     136.765 112.866 128.562  1.00  0.00     0.177 C 
ATOM     39  C   UNL     1     135.680 111.484 130.133  1.00  0.00     0.177 C 
ATOM     40  O   UNL     1     136.949 111.896 129.603  1.00  0.00    -0.379 OA
ENDBRANCH  32  35
ENDBRANCH  26  32
ENDBRANCH  18  19
ENDBRANCH   1  18
TORSDOF 12
ENDMDL
MODEL 8
REMARK VINA RESULT:      -9.1      2.695      4.327
REMARK SMILES CCCCn1c(CCC(=O)N(C)Cc2cc(N)c(Cl)cc2F)nc2cc(S(=O)(=O)N3CCOCC3)ccc21
REMARK SMILES IDX 8 1 9 2 10 3 11 4 12 5 13 6 14 7 21 8 15 9 22 10 20 11 16 12
REMARK SMILES IDX 18 13 19 14 17 15 7 18 6 19 23 20 5 21 24 22 38 23 25 24
REMARK SMILES IDX 37 25 26 26 36 27 4 28 3 29 2 30 1 31 27 32 28 33 29 34
REMARK SMILES IDX 30 35 31 36 35 37 32 38 34 39 33 40
REMARK H PARENT 17 16 17 17
REMARK Flexibility Score: inf
ROOT
ATOM      1  C   UNL     1     129.180 117.870 135.407  1.00  0.00     0.108 C 
ENDROOT
BRANCH   1   2
ATOM      2  C   UNL     1     128.003 117.418 136.251  1.00  0.00     0.223 C 
ATOM      3  O   UNL     1     127.326 118.232 136.883  1.00  0.00    -0.275 OA
BRANCH   2   4
ATOM      4  N   UNL     1     127.731 116.053 136.273  1.00  0.00    -0.341 N 
ATOM      5  C   UNL     1     128.175 115.155 137.331  1.00  0.00     0.147 C 
BRANCH   4   6
ATOM      6  C   UNL     1     126.737 115.527 135.338  1.00  0.00     0.157 C 
BRANCH   6   7
ATOM      7  C   UNL     1     127.333 115.164 134.002  1.00  0.00     0.009 A 
ATOM      8  C   UNL     1     126.627 115.393 132.821  1.00  0.00     0.129 A 
ATOM      9  C   UNL     1     128.614 114.594 133.919  1.00  0.00     0.035 A 
ATOM     10  F   UNL     1     125.407 115.947 132.870  1.00  0.00    -0.207 F 
ATOM     11  C   UNL     1     127.157 115.055 131.582  1.00  0.00     0.062 A 
ATOM     12  C   UNL     1     129.194 114.288 132.680  1.00  0.00     0.051 A 
ATOM     13  C   UNL     1     128.428 114.486 131.517  1.00  0.00     0.066 A 
ATOM     14  Cl  UNL     1     129.058 114.061 129.963  1.00  0.00    -0.082 Cl
BRANCH  12  15
ATOM     15  N   UNL     1     130.421 113.602 132.655  1.00  0.00    -0.398 N 
ATOM     16  H   UNL     1     130.309 112.591 132.626  1.00  0.00     0.156 HD
ATOM     17  H   UNL     1     131.082 113.950 131.968  1.00  0.00     0.156 HD
ENDBRANCH  12  15
ENDBRANCH   6   7
ENDBRANCH   4   6
ENDBRANCH   2   4
ENDBRANCH   1   2
BRANCH   1  18
ATOM     18  C   UNL     1     128.720 118.380 134.043  1.00  0.00     0.085 C 
BRANCH  18  19
ATOM     19  C   UNL     1     129.777 118.222 132.996  1.00  0.00     0.110 A 
ATOM     20  N   UNL     1     130.174 117.082 132.465  1.00  0.00    -0.233 NA
ATOM     21  N   UNL     1     130.479 119.280 132.454  1.00  0.00    -0.328 N 
ATOM     22  C   UNL     1     131.157 117.404 131.566  1.00  0.00     0.090 A 
ATOM     23  C   UNL     1     131.370 118.778 131.531  1.00  0.00     0.068 A 
ATOM     24  C   UNL     1     131.910 116.558 130.743  1.00  0.00     0.052 A 
ATOM     25  C   UNL     1     132.323 119.377 130.697  1.00  0.00     0.030 A 
ATOM     26  C   UNL     1     132.856 117.145 129.894  1.00  0.00     0.085 A 
ATOM     27  C   UNL     1     133.069 118.529 129.873  1.00  0.00     0.024 A 
BRANCH  21  28
ATOM     28  C   UNL     1     130.310 120.685 132.786  1.00  0.00     0.124 C 
BRANCH  28  29
ATOM     29  C   UNL     1     131.317 121.150 133.838  1.00  0.00     0.022 C 
BRANCH  29  30
ATOM     30  C   UNL     1     130.733 121.195 135.251  1.00  0.00    -0.002 C 
ATOM     31  C   UNL     1     129.244 121.505 135.278  1.00  0.00     0.004 C 
ENDBRANCH  29  30
ENDBRANCH  28  29
ENDBRANCH  21  28
BRANCH  26  32
ATOM     32  S   UNL     1     133.832 116.117 128.828  1.00  0.00     0.243 S 
ATOM     33  O   UNL     1     135.218 116.515 128.942  1.00  0.00    -0.207 OA
ATOM     34  O   UNL     1     133.168 116.087 127.541  1.00  0.00    -0.207 OA
BRANCH  32  35
ATOM     35  N   UNL     1     133.666 114.582 129.546  1.00  0.00    -0.193 NA
ATOM     36  C   UNL     1     134.921 113.914 130.019  1.00  0.00     0.131 C 
ATOM     37  C   UNL     1     132.821 113.614 128.778  1.00  0.00     0.131 C 
ATOM     38  C   UNL     1     135.636 113.160 128.890  1.00  0.00     0.177 C 
ATOM     39  C   UNL     1     133.628 112.918 127.680  1.00  0.00     0.177 C 
ATOM     40  O   UNL     1     134.757 112.231 128.240  1.00  0.00    -0.379 OA
ENDBRANCH  32  35
ENDBRANCH  26  32
ENDBRANCH  18  19
ENDBRANCH   1  18
TORSDOF 12
ENDMDL
MODEL 9
REMARK VINA RESULT:      -9.1      2.243      3.254
REMARK SMILES CCCCn1c(CCC(=O)N(C)Cc2cc(N)c(Cl)cc2F)nc2cc(S(=O)(=O)N3CCOCC3)ccc21
REMARK SMILES IDX 8 1 9 2 10 3 11 4 12 5 13 6 14 7 21 8 15 9 22 10 20 11 16 12
REMARK SMILES IDX 18 13 19 14 17 15 7 18 6 19 23 20 5 21 24 22 38 23 25 24
REMARK SMILES IDX 37 25 26 26 36 27 4 28 3 29 2 30 1 31 27 32 28 33 29 34
REMARK SMILES IDX 30 35 31 36 35 37 32 38 34 39 33 40
REMARK H PARENT 17 16 17 17
REMARK Flexibility Score: inf
ROOT
ATOM      1  C   UNL     1     130.141 118.734 134.162  1.00  0.00     0.108 C 
ENDROOT
BRANCH   1   2
ATOM      2  C   UNL     1     129.545 120.022 134.698  1.00  0.00     0.223 C 
ATOM      3  O   UNL     1     129.333 120.981 133.954  1.00  0.00    -0.275 OA
BRANCH   2   4
ATOM      4  N   UNL     1     129.253 120.062 136.059  1.00  0.00    -0.341 N 
ATOM      5  C   UNL     1     128.232 120.923 136.644  1.00  0.00     0.147 C 
BRANCH   4   6
ATOM      6  C   UNL     1     129.801 119.014 136.919  1.00  0.00     0.157 C 
BRANCH   6   7
ATOM      7  C   UNL     1     128.754 118.029 137.371  1.00  0.00     0.009 A 
ATOM      8  C   UNL     1     128.566 117.762 138.728  1.00  0.00     0.129 A 
ATOM      9  C   UNL     1     127.941 117.366 136.437  1.00  0.00     0.035 A 
ATOM     10  F   UNL     1     129.319 118.389 139.643  1.00  0.00    -0.207 F 
ATOM     11  C   UNL     1     127.612 116.849 139.162  1.00  0.00     0.062 A 
ATOM     12  C   UNL     1     126.938 116.477 136.848  1.00  0.00     0.051 A 
ATOM     13  C   UNL     1     126.816 116.197 138.221  1.00  0.00     0.066 A 
ATOM     14  Cl  UNL     1     125.647 115.054 138.788  1.00  0.00    -0.082 Cl
BRANCH  12  15
ATOM     15  N   UNL     1     126.239 115.744 135.873  1.00  0.00    -0.398 N 
ATOM     16  H   UNL     1     126.717 114.885 135.607  1.00  0.00     0.156 HD
ATOM     17  H   UNL     1     125.255 115.605 136.078  1.00  0.00     0.156 HD
ENDBRANCH  12  15
ENDBRANCH   6   7
ENDBRANCH   4   6
ENDBRANCH   2   4
ENDBRANCH   1   2
BRANCH   1  18
ATOM     18  C   UNL     1     129.463 118.310 132.861  1.00  0.00     0.085 C 
BRANCH  18  19
ATOM     19  C   UNL     1     130.413 117.629 131.926  1.00  0.00     0.110 A 
ATOM     20  N   UNL     1     130.599 116.328 131.826  1.00  0.00    -0.233 NA
ATOM     21  N   UNL     1     131.228 118.305 131.041  1.00  0.00    -0.328 N 
ATOM     22  C   UNL     1     131.558 116.154 130.862  1.00  0.00     0.090 A 
ATOM     23  C   UNL     1     131.970 117.377 130.344  1.00  0.00     0.068 A 
ATOM     24  C   UNL     1     132.119 114.965 130.381  1.00  0.00     0.052 A 
ATOM     25  C   UNL     1     132.946 117.487 129.344  1.00  0.00     0.030 A 
ATOM     26  C   UNL     1     133.084 115.060 129.372  1.00  0.00     0.085 A 
ATOM     27  C   UNL     1     133.499 116.297 128.864  1.00  0.00     0.024 A 
BRANCH  21  28
ATOM     28  C   UNL     1     131.293 119.746 130.859  1.00  0.00     0.124 C 
BRANCH  28  29
ATOM     29  C   UNL     1     132.102 120.425 131.964  1.00  0.00     0.022 C 
BRANCH  29  30
ATOM     30  C   UNL     1     133.199 121.347 131.426  1.00  0.00    -0.002 C 
ATOM     31  C   UNL     1     132.723 122.771 131.182  1.00  0.00     0.004 C 
ENDBRANCH  29  30
ENDBRANCH  28  29
ENDBRANCH  21  28
BRANCH  26  32
ATOM     32  S   UNL     1     133.822 113.583 128.725  1.00  0.00     0.243 S 
ATOM     33  O   UNL     1     133.521 113.493 127.314  1.00  0.00    -0.207 OA
ATOM     34  O   UNL     1     133.482 112.505 129.631  1.00  0.00    -0.207 OA
BRANCH  32  35
ATOM     35  N   UNL     1     135.487 113.904 128.887  1.00  0.00    -0.193 NA
ATOM     36  C   UNL     1     136.433 112.829 128.444  1.00  0.00     0.131 C 
ATOM     37  C   UNL     1     135.900 114.440 130.222  1.00  0.00     0.131 C 
ATOM     38  C   UNL     1     136.666 111.778 129.537  1.00  0.00     0.177 C 
ATOM     39  C   UNL     1     136.107 113.312 131.236  1.00  0.00     0.177 C 
ATOM     40  O   UNL     1     137.094 112.384 130.765  1.00  0.00    -0.379 OA
ENDBRANCH  32  35
ENDBRANCH  26  32
ENDBRANCH  18  19
ENDBRANCH   1  18
TORSDOF 12
ENDMDL
