MODEL 1
REMARK VINA RESULT:     -12.9      0.000      0.000
REMARK SMILES Cc1cc(NC(=O)c2ccc(NS(=O)(=O)CCO)cc2N2CCC3(CC2)CC3)nc(N2CCC(F)(F)CC2)n1
REMARK SMILES IDX 12 1 11 3 8 4 20 5 9 6 19 7 10 8 6 9 5 10 7 12 4 13 1 14
REMARK SMILES IDX 2 15 3 16 39 17 30 18 29 19 31 20 32 21 38 22 33 23 37 24
REMARK SMILES IDX 34 25 35 26 36 27 21 28 22 29 26 30 23 31 25 32 24 33 27 34
REMARK SMILES IDX 28 35 13 36 14 37 15 38 16 39 17 40 18 41
REMARK H PARENT 12 2 5 11 18 42
REMARK Flexibility Score: inf
ROOT
ATOM      1  N   UNL     1     133.488 114.193 128.161  1.00  0.00    -0.283 N 
ATOM      2  H   UNL     1     133.735 114.466 127.209  1.00  0.00     0.180 HD
ENDROOT
BRANCH   1   3
ATOM      3  C   UNL     1     132.931 115.190 129.010  1.00  0.00     0.051 A 
ATOM      4  C   UNL     1     131.763 117.125 130.691  1.00  0.00     0.063 A 
ATOM      5  C   UNL     1     131.230 115.809 130.661  1.00  0.00     0.052 A 
ATOM      6  C   UNL     1     132.870 117.437 129.880  1.00  0.00     0.018 A 
ATOM      7  C   UNL     1     131.839 114.858 129.814  1.00  0.00     0.053 A 
ATOM      8  C   UNL     1     133.449 116.478 129.046  1.00  0.00     0.028 A 
BRANCH   4   9
ATOM      9  C   UNL     1     131.216 118.251 131.534  1.00  0.00     0.258 C 
ATOM     10  N   UNL     1     130.715 117.890 132.757  1.00  0.00    -0.306 N 
ATOM     11  H   UNL     1     130.776 116.904 133.001  1.00  0.00     0.171 HD
ATOM     12  O   UNL     1     131.239 119.396 131.093  1.00  0.00    -0.269 OA
BRANCH  10  13
ATOM     13  C   UNL     1     130.150 118.678 133.756  1.00  0.00     0.138 A 
ATOM     14  C   UNL     1     128.738 122.020 134.576  1.00  0.00     0.067 C 
ATOM     15  C   UNL     1     129.208 120.600 134.668  1.00  0.00     0.045 A 
ATOM     16  C   UNL     1     129.749 119.977 133.569  1.00  0.00     0.070 A 
ATOM     17  N   UNL     1     129.076 119.981 135.859  1.00  0.00    -0.218 NA
ATOM     18  C   UNL     1     129.496 118.713 135.967  1.00  0.00     0.227 A 
ATOM     19  N   UNL     1     130.029 118.044 134.936  1.00  0.00    -0.195 NA
BRANCH  18  20
ATOM     20  N   UNL     1     129.370 118.064 137.193  1.00  0.00    -0.340 N 
ATOM     21  C   UNL     1     128.132 118.300 137.936  1.00  0.00     0.126 C 
ATOM     22  C   UNL     1     129.879 116.696 137.269  1.00  0.00     0.126 C 
ATOM     23  C   UNL     1     127.034 117.382 137.418  1.00  0.00     0.098 C 
ATOM     24  C   UNL     1     128.840 115.725 136.726  1.00  0.00     0.098 C 
ATOM     25  C   UNL     1     127.520 115.945 137.440  1.00  0.00     0.251 C 
ATOM     26  F   UNL     1     126.574 115.141 136.889  1.00  0.00    -0.207 F 
ATOM     27  F   UNL     1     127.645 115.539 138.734  1.00  0.00    -0.207 F 
ENDBRANCH  18  20
ENDBRANCH  10  13
ENDBRANCH   4   9
BRANCH   5  28
ATOM     28  N   UNL     1     130.133 115.435 131.474  1.00  0.00    -0.371 N 
ATOM     29  C   UNL     1     128.794 115.791 130.934  1.00  0.00     0.117 C 
ATOM     30  C   UNL     1     130.274 114.051 131.994  1.00  0.00     0.117 C 
ATOM     31  C   UNL     1     127.903 114.567 130.708  1.00  0.00     0.028 C 
ATOM     32  C   UNL     1     129.039 113.672 132.816  1.00  0.00     0.028 C 
ATOM     33  C   UNL     1     127.776 113.735 131.972  1.00  0.00    -0.026 C 
ATOM     34  C   UNL     1     126.876 112.517 131.921  1.00  0.00     0.008 C 
ATOM     35  C   UNL     1     126.447 113.723 132.702  1.00  0.00     0.008 C 
ENDBRANCH   5  28
ENDBRANCH   1   3
BRANCH   1  36
ATOM     36  S   UNL     1     134.552 113.050 128.795  1.00  0.00     0.234 S 
ATOM     37  O   UNL     1     135.281 112.531 127.657  1.00  0.00    -0.207 OA
ATOM     38  O   UNL     1     133.842 112.168 129.693  1.00  0.00    -0.207 OA
BRANCH  36  39
ATOM     39  C   UNL     1     135.676 114.057 129.743  1.00  0.00     0.188 C 
BRANCH  39  40
ATOM     40  C   UNL     1     136.757 113.193 130.355  1.00  0.00     0.174 C 
BRANCH  40  41
ATOM     41  O   UNL     1     136.314 112.732 131.629  1.00  0.00    -0.395 OA
ATOM     42  H   UNL     1     135.345 112.647 131.580  1.00  0.00     0.210 HD
ENDBRANCH  40  41
ENDBRANCH  39  40
ENDBRANCH  36  39
ENDBRANCH   1  36
TORSDOF 9
ENDMDL
MODEL 2
REMARK VINA RESULT:     -12.7      1.033      1.480
REMARK SMILES Cc1cc(NC(=O)c2ccc(NS(=O)(=O)CCO)cc2N2CCC3(CC2)CC3)nc(N2CCC(F)(F)CC2)n1
REMARK SMILES IDX 12 1 11 3 8 4 20 5 9 6 19 7 10 8 6 9 5 10 7 12 4 13 1 14
REMARK SMILES IDX 2 15 3 16 39 17 30 18 29 19 31 20 32 21 38 22 33 23 37 24
REMARK SMILES IDX 34 25 35 26 36 27 21 28 22 29 26 30 23 31 25 32 24 33 27 34
REMARK SMILES IDX 28 35 13 36 14 37 15 38 16 39 17 40 18 41
REMARK H PARENT 12 2 5 11 18 42
REMARK Flexibility Score: inf
ROOT
ATOM      1  N   UNL     1     133.867 114.154 128.665  1.00  0.00    -0.283 N 
ATOM      2  H   UNL     1     134.185 114.345 127.716  1.00  0.00     0.180 HD
ENDROOT
BRANCH   1   3
ATOM      3  C   UNL     1     133.180 115.193 129.354  1.00  0.00     0.051 A 
ATOM      4  C   UNL     1     131.758 117.209 130.713  1.00  0.00     0.063 A 
ATOM      5  C   UNL     1     131.302 115.865 130.776  1.00  0.00     0.052 A 
ATOM      6  C   UNL     1     132.917 117.508 129.974  1.00  0.00     0.018 A 
ATOM      7  C   UNL     1     132.037 114.875 130.090  1.00  0.00     0.053 A 
ATOM      8  C   UNL     1     133.622 116.509 129.299  1.00  0.00     0.028 A 
BRANCH   4   9
ATOM      9  C   UNL     1     131.075 118.376 131.382  1.00  0.00     0.258 C 
ATOM     10  N   UNL     1     130.612 118.148 132.652  1.00  0.00    -0.306 N 
ATOM     11  H   UNL     1     130.788 117.225 133.041  1.00  0.00     0.171 HD
ATOM     12  O   UNL     1     130.965 119.436 130.773  1.00  0.00    -0.269 OA
BRANCH  10  13
ATOM     13  C   UNL     1     129.950 119.006 133.526  1.00  0.00     0.138 A 
ATOM     14  C   UNL     1     129.064 122.546 134.244  1.00  0.00     0.067 C 
ATOM     15  C   UNL     1     129.190 121.055 134.324  1.00  0.00     0.045 A 
ATOM     16  C   UNL     1     129.892 120.366 133.363  1.00  0.00     0.070 A 
ATOM     17  N   UNL     1     128.593 120.438 135.364  1.00  0.00    -0.218 NA
ATOM     18  C   UNL     1     128.698 119.105 135.460  1.00  0.00     0.227 A 
ATOM     19  N   UNL     1     129.363 118.373 134.558  1.00  0.00    -0.195 NA
BRANCH  18  20
ATOM     20  N   UNL     1     128.089 118.457 136.533  1.00  0.00    -0.340 N 
ATOM     21  C   UNL     1     127.792 117.035 136.356  1.00  0.00     0.126 C 
ATOM     22  C   UNL     1     128.546 118.827 137.871  1.00  0.00     0.126 C 
ATOM     23  C   UNL     1     129.035 116.206 136.652  1.00  0.00     0.098 C 
ATOM     24  C   UNL     1     129.815 118.060 138.215  1.00  0.00     0.098 C 
ATOM     25  C   UNL     1     129.576 116.575 138.021  1.00  0.00     0.251 C 
ATOM     26  F   UNL     1     130.737 115.903 138.241  1.00  0.00    -0.207 F 
ATOM     27  F   UNL     1     128.708 116.138 138.975  1.00  0.00    -0.207 F 
ENDBRANCH  18  20
ENDBRANCH  10  13
ENDBRANCH   4   9
BRANCH   5  28
ATOM     28  N   UNL     1     130.156 115.505 131.526  1.00  0.00    -0.371 N 
ATOM     29  C   UNL     1     128.854 115.819 130.881  1.00  0.00     0.117 C 
ATOM     30  C   UNL     1     130.278 114.145 132.109  1.00  0.00     0.117 C 
ATOM     31  C   UNL     1     127.996 114.573 130.642  1.00  0.00     0.028 C 
ATOM     32  C   UNL     1     128.994 113.779 132.857  1.00  0.00     0.028 C 
ATOM     33  C   UNL     1     127.792 113.789 131.926  1.00  0.00    -0.026 C 
ATOM     34  C   UNL     1     126.914 112.556 131.861  1.00  0.00     0.008 C 
ATOM     35  C   UNL     1     126.416 113.784 132.562  1.00  0.00     0.008 C 
ENDBRANCH   5  28
ENDBRANCH   1   3
BRANCH   1  36
ATOM     36  S   UNL     1     134.928 113.151 129.507  1.00  0.00     0.234 S 
ATOM     37  O   UNL     1     134.174 111.947 129.791  1.00  0.00    -0.207 OA
ATOM     38  O   UNL     1     135.571 113.897 130.564  1.00  0.00    -0.207 OA
BRANCH  36  39
ATOM     39  C   UNL     1     136.141 112.747 128.265  1.00  0.00     0.188 C 
BRANCH  39  40
ATOM     40  C   UNL     1     137.443 112.345 128.922  1.00  0.00     0.174 C 
BRANCH  40  41
ATOM     41  O   UNL     1     137.177 111.334 129.892  1.00  0.00    -0.395 OA
ATOM     42  H   UNL     1     136.623 110.661 129.458  1.00  0.00     0.210 HD
ENDBRANCH  40  41
ENDBRANCH  39  40
ENDBRANCH  36  39
ENDBRANCH   1  36
TORSDOF 9
ENDMDL
MODEL 3
REMARK VINA RESULT:     -12.5      1.095      1.441
REMARK SMILES Cc1cc(NC(=O)c2ccc(NS(=O)(=O)CCO)cc2N2CCC3(CC2)CC3)nc(N2CCC(F)(F)CC2)n1
REMARK SMILES IDX 12 1 11 3 8 4 20 5 9 6 19 7 10 8 6 9 5 10 7 12 4 13 1 14
REMARK SMILES IDX 2 15 3 16 39 17 30 18 29 19 31 20 32 21 38 22 33 23 37 24
REMARK SMILES IDX 34 25 35 26 36 27 21 28 22 29 26 30 23 31 25 32 24 33 27 34
REMARK SMILES IDX 28 35 13 36 14 37 15 38 16 39 17 40 18 41
REMARK H PARENT 12 2 5 11 18 42
REMARK Flexibility Score: inf
ROOT
ATOM      1  N   UNL     1     133.538 113.780 128.229  1.00  0.00    -0.283 N 
ATOM      2  H   UNL     1     133.614 113.887 127.217  1.00  0.00     0.180 HD
ENDROOT
BRANCH   1   3
ATOM      3  C   UNL     1     133.024 114.879 128.973  1.00  0.00     0.051 A 
ATOM      4  C   UNL     1     131.939 117.017 130.451  1.00  0.00     0.063 A 
ATOM      5  C   UNL     1     131.369 115.723 130.569  1.00  0.00     0.052 A 
ATOM      6  C   UNL     1     133.043 117.207 129.598  1.00  0.00     0.018 A 
ATOM      7  C   UNL     1     131.935 114.668 129.822  1.00  0.00     0.053 A 
ATOM      8  C   UNL     1     133.580 116.147 128.864  1.00  0.00     0.028 A 
BRANCH   4   9
ATOM      9  C   UNL     1     131.440 118.243 131.175  1.00  0.00     0.258 C 
ATOM     10  N   UNL     1     131.448 118.171 132.543  1.00  0.00    -0.306 N 
ATOM     11  H   UNL     1     131.811 117.314 132.952  1.00  0.00     0.171 HD
ATOM     12  O   UNL     1     131.054 119.209 130.523  1.00  0.00    -0.269 OA
BRANCH  10  13
ATOM     13  C   UNL     1     131.059 119.118 133.487  1.00  0.00     0.138 A 
ATOM     14  C   UNL     1     131.517 122.613 134.675  1.00  0.00     0.067 C 
ATOM     15  C   UNL     1     131.048 121.196 134.533  1.00  0.00     0.045 A 
ATOM     16  C   UNL     1     131.550 120.398 133.532  1.00  0.00     0.070 A 
ATOM     17  N   UNL     1     130.129 120.757 135.416  1.00  0.00    -0.218 NA
ATOM     18  C   UNL     1     129.700 119.492 135.312  1.00  0.00     0.227 A 
ATOM     19  N   UNL     1     130.143 118.661 134.360  1.00  0.00    -0.195 NA
BRANCH  18  20
ATOM     20  N   UNL     1     128.754 119.024 136.222  1.00  0.00    -0.340 N 
ATOM     21  C   UNL     1     128.198 117.696 135.965  1.00  0.00     0.126 C 
ATOM     22  C   UNL     1     128.991 119.328 137.632  1.00  0.00     0.126 C 
ATOM     23  C   UNL     1     129.139 116.627 136.504  1.00  0.00     0.098 C 
ATOM     24  C   UNL     1     129.961 118.316 138.225  1.00  0.00     0.098 C 
ATOM     25  C   UNL     1     129.450 116.912 137.961  1.00  0.00     0.251 C 
ATOM     26  F   UNL     1     130.363 116.012 138.410  1.00  0.00    -0.207 F 
ATOM     27  F   UNL     1     128.327 116.704 138.704  1.00  0.00    -0.207 F 
ENDBRANCH  18  20
ENDBRANCH  10  13
ENDBRANCH   4   9
BRANCH   5  28
ATOM     28  N   UNL     1     130.274 115.471 131.431  1.00  0.00    -0.371 N 
ATOM     29  C   UNL     1     128.941 115.842 130.887  1.00  0.00     0.117 C 
ATOM     30  C   UNL     1     130.363 114.132 132.067  1.00  0.00     0.117 C 
ATOM     31  C   UNL     1     127.991 114.646 130.784  1.00  0.00     0.028 C 
ATOM     32  C   UNL     1     129.131 113.884 132.941  1.00  0.00     0.028 C 
ATOM     33  C   UNL     1     127.854 113.933 132.117  1.00  0.00    -0.026 C 
ATOM     34  C   UNL     1     126.899 112.758 132.189  1.00  0.00     0.008 C 
ATOM     35  C   UNL     1     126.543 114.045 132.869  1.00  0.00     0.008 C 
ENDBRANCH   5  28
ENDBRANCH   1   3
BRANCH   1  36
ATOM     36  S   UNL     1     134.787 112.846 128.868  1.00  0.00     0.234 S 
ATOM     37  O   UNL     1     135.607 112.473 127.734  1.00  0.00    -0.207 OA
ATOM     38  O   UNL     1     134.242 111.844 129.757  1.00  0.00    -0.207 OA
BRANCH  36  39
ATOM     39  C   UNL     1     135.703 114.034 129.830  1.00  0.00     0.188 C 
BRANCH  39  40
ATOM     40  C   UNL     1     136.602 113.321 130.816  1.00  0.00     0.174 C 
BRANCH  40  41
ATOM     41  O   UNL     1     137.135 112.155 130.194  1.00  0.00    -0.395 OA
ATOM     42  H   UNL     1     136.916 111.400 130.769  1.00  0.00     0.210 HD
ENDBRANCH  40  41
ENDBRANCH  39  40
ENDBRANCH  36  39
ENDBRANCH   1  36
TORSDOF 9
ENDMDL
MODEL 4
REMARK VINA RESULT:     -11.8      0.997      1.274
REMARK SMILES Cc1cc(NC(=O)c2ccc(NS(=O)(=O)CCO)cc2N2CCC3(CC2)CC3)nc(N2CCC(F)(F)CC2)n1
REMARK SMILES IDX 12 1 11 3 8 4 20 5 9 6 19 7 10 8 6 9 5 10 7 12 4 13 1 14
REMARK SMILES IDX 2 15 3 16 39 17 30 18 29 19 31 20 32 21 38 22 33 23 37 24
REMARK SMILES IDX 34 25 35 26 36 27 21 28 22 29 26 30 23 31 25 32 24 33 27 34
REMARK SMILES IDX 28 35 13 36 14 37 15 38 16 39 17 40 18 41
REMARK H PARENT 12 2 5 11 18 42
REMARK Flexibility Score: inf
ROOT
ATOM      1  N   UNL     1     134.244 114.492 128.341  1.00  0.00    -0.283 N 
ATOM      2  H   UNL     1     135.079 115.028 128.111  1.00  0.00     0.180 HD
ENDROOT
BRANCH   1   3
ATOM      3  C   UNL     1     133.266 115.113 129.168  1.00  0.00     0.051 A 
ATOM      4  C   UNL     1     131.281 116.291 130.782  1.00  0.00     0.063 A 
ATOM      5  C   UNL     1     131.178 114.918 130.435  1.00  0.00     0.052 A 
ATOM      6  C   UNL     1     132.378 117.038 130.316  1.00  0.00     0.018 A 
ATOM      7  C   UNL     1     132.190 114.352 129.630  1.00  0.00     0.053 A 
ATOM      8  C   UNL     1     133.362 116.455 129.514  1.00  0.00     0.028 A 
BRANCH   4   9
ATOM      9  C   UNL     1     130.276 117.038 131.624  1.00  0.00     0.258 C 
ATOM     10  N   UNL     1     130.773 117.641 132.749  1.00  0.00    -0.306 N 
ATOM     11  H   UNL     1     131.774 117.556 132.907  1.00  0.00     0.171 HD
ATOM     12  O   UNL     1     129.100 117.060 131.275  1.00  0.00    -0.269 OA
BRANCH  10  13
ATOM     13  C   UNL     1     130.118 118.397 133.718  1.00  0.00     0.138 A 
ATOM     14  C   UNL     1     128.647 121.717 134.523  1.00  0.00     0.067 C 
ATOM     15  C   UNL     1     129.100 120.291 134.607  1.00  0.00     0.045 A 
ATOM     16  C   UNL     1     129.741 119.704 133.542  1.00  0.00     0.070 A 
ATOM     17  N   UNL     1     128.852 119.629 135.756  1.00  0.00    -0.218 NA
ATOM     18  C   UNL     1     129.255 118.355 135.856  1.00  0.00     0.227 A 
ATOM     19  N   UNL     1     129.881 117.721 134.857  1.00  0.00    -0.195 NA
BRANCH  18  20
ATOM     20  N   UNL     1     129.009 117.662 137.040  1.00  0.00    -0.340 N 
ATOM     21  C   UNL     1     127.773 117.994 137.749  1.00  0.00     0.126 C 
ATOM     22  C   UNL     1     129.365 116.244 137.059  1.00  0.00     0.126 C 
ATOM     23  C   UNL     1     126.606 117.229 137.142  1.00  0.00     0.098 C 
ATOM     24  C   UNL     1     128.252 115.422 136.426  1.00  0.00     0.098 C 
ATOM     25  C   UNL     1     126.934 115.748 137.103  1.00  0.00     0.251 C 
ATOM     26  F   UNL     1     125.931 115.081 136.475  1.00  0.00    -0.207 F 
ATOM     27  F   UNL     1     126.960 115.265 138.377  1.00  0.00    -0.207 F 
ENDBRANCH  18  20
ENDBRANCH  10  13
ENDBRANCH   4   9
BRANCH   5  28
ATOM     28  N   UNL     1     130.108 114.114 130.897  1.00  0.00    -0.371 N 
ATOM     29  C   UNL     1     130.048 113.927 132.371  1.00  0.00     0.117 C 
ATOM     30  C   UNL     1     128.825 114.462 130.236  1.00  0.00     0.117 C 
ATOM     31  C   UNL     1     128.746 114.452 132.981  1.00  0.00     0.028 C 
ATOM     32  C   UNL     1     127.692 113.609 130.811  1.00  0.00     0.028 C 
ATOM     33  C   UNL     1     127.533 113.840 132.305  1.00  0.00    -0.026 C 
ATOM     34  C   UNL     1     126.166 114.220 132.838  1.00  0.00     0.008 C 
ATOM     35  C   UNL     1     126.698 112.839 133.080  1.00  0.00     0.008 C 
ENDBRANCH   5  28
ENDBRANCH   1   3
BRANCH   1  36
ATOM     36  S   UNL     1     134.568 112.847 128.519  1.00  0.00     0.234 S 
ATOM     37  O   UNL     1     135.622 112.559 127.568  1.00  0.00    -0.207 OA
ATOM     38  O   UNL     1     133.330 112.101 128.511  1.00  0.00    -0.207 OA
BRANCH  36  39
ATOM     39  C   UNL     1     135.279 112.770 130.151  1.00  0.00     0.188 C 
BRANCH  39  40
ATOM     40  C   UNL     1     136.780 112.605 130.057  1.00  0.00     0.174 C 
BRANCH  40  41
ATOM     41  O   UNL     1     137.075 111.246 129.741  1.00  0.00    -0.395 OA
ATOM     42  H   UNL     1     137.582 110.883 130.490  1.00  0.00     0.210 HD
ENDBRANCH  40  41
ENDBRANCH  39  40
ENDBRANCH  36  39
ENDBRANCH   1  36
TORSDOF 9
ENDMDL
MODEL 5
REMARK VINA RESULT:     -11.5      0.967      1.545
REMARK SMILES Cc1cc(NC(=O)c2ccc(NS(=O)(=O)CCO)cc2N2CCC3(CC2)CC3)nc(N2CCC(F)(F)CC2)n1
REMARK SMILES IDX 12 1 11 3 8 4 20 5 9 6 19 7 10 8 6 9 5 10 7 12 4 13 1 14
REMARK SMILES IDX 2 15 3 16 39 17 30 18 29 19 31 20 32 21 38 22 33 23 37 24
REMARK SMILES IDX 34 25 35 26 36 27 21 28 22 29 26 30 23 31 25 32 24 33 27 34
REMARK SMILES IDX 28 35 13 36 14 37 15 38 16 39 17 40 18 41
REMARK H PARENT 12 2 5 11 18 42
REMARK Flexibility Score: inf
ROOT
ATOM      1  N   UNL     1     133.683 114.159 128.008  1.00  0.00    -0.283 N 
ATOM      2  H   UNL     1     133.991 114.449 127.080  1.00  0.00     0.180 HD
ENDROOT
BRANCH   1   3
ATOM      3  C   UNL     1     133.121 115.152 128.858  1.00  0.00     0.051 A 
ATOM      4  C   UNL     1     131.943 117.081 130.540  1.00  0.00     0.063 A 
ATOM      5  C   UNL     1     131.412 115.764 130.503  1.00  0.00     0.052 A 
ATOM      6  C   UNL     1     133.054 117.396 129.736  1.00  0.00     0.018 A 
ATOM      7  C   UNL     1     132.025 114.817 129.656  1.00  0.00     0.053 A 
ATOM      8  C   UNL     1     133.638 116.441 128.902  1.00  0.00     0.028 A 
BRANCH   4   9
ATOM      9  C   UNL     1     131.391 118.203 131.384  1.00  0.00     0.258 C 
ATOM     10  N   UNL     1     130.605 117.823 132.440  1.00  0.00    -0.306 N 
ATOM     11  H   UNL     1     130.482 116.823 132.579  1.00  0.00     0.171 HD
ATOM     12  O   UNL     1     131.658 119.363 131.087  1.00  0.00    -0.269 OA
BRANCH  10  13
ATOM     13  C   UNL     1     129.959 118.603 133.395  1.00  0.00     0.138 A 
ATOM     14  C   UNL     1     129.084 122.069 134.424  1.00  0.00     0.067 C 
ATOM     15  C   UNL     1     129.212 120.576 134.376  1.00  0.00     0.045 A 
ATOM     16  C   UNL     1     129.897 119.973 133.348  1.00  0.00     0.070 A 
ATOM     17  N   UNL     1     128.633 119.873 135.370  1.00  0.00    -0.218 NA
ATOM     18  C   UNL     1     128.740 118.538 135.352  1.00  0.00     0.227 A 
ATOM     19  N   UNL     1     129.389 117.884 134.380  1.00  0.00    -0.195 NA
BRANCH  18  20
ATOM     20  N   UNL     1     128.151 117.800 136.377  1.00  0.00    -0.340 N 
ATOM     21  C   UNL     1     128.897 116.639 136.862  1.00  0.00     0.126 C 
ATOM     22  C   UNL     1     127.450 118.556 137.413  1.00  0.00     0.126 C 
ATOM     23  C   UNL     1     129.941 117.083 137.878  1.00  0.00     0.098 C 
ATOM     24  C   UNL     1     128.446 119.066 138.445  1.00  0.00     0.098 C 
ATOM     25  C   UNL     1     129.274 117.906 138.964  1.00  0.00     0.251 C 
ATOM     26  F   UNL     1     130.221 118.379 139.816  1.00  0.00    -0.207 F 
ATOM     27  F   UNL     1     128.476 117.093 139.711  1.00  0.00    -0.207 F 
ENDBRANCH  18  20
ENDBRANCH  10  13
ENDBRANCH   4   9
BRANCH   5  28
ATOM     28  N   UNL     1     130.310 115.386 131.309  1.00  0.00    -0.371 N 
ATOM     29  C   UNL     1     128.976 115.774 130.780  1.00  0.00     0.117 C 
ATOM     30  C   UNL     1     130.433 113.989 131.797  1.00  0.00     0.117 C 
ATOM     31  C   UNL     1     128.067 114.567 130.527  1.00  0.00     0.028 C 
ATOM     32  C   UNL     1     129.194 113.608 132.611  1.00  0.00     0.028 C 
ATOM     33  C   UNL     1     127.931 113.708 131.771  1.00  0.00    -0.026 C 
ATOM     34  C   UNL     1     127.014 112.504 131.694  1.00  0.00     0.008 C 
ATOM     35  C   UNL     1     126.603 113.697 132.503  1.00  0.00     0.008 C 
ENDBRANCH   5  28
ENDBRANCH   1   3
BRANCH   1  36
ATOM     36  S   UNL     1     134.665 112.955 128.661  1.00  0.00     0.234 S 
ATOM     37  O   UNL     1     135.504 112.510 127.568  1.00  0.00    -0.207 OA
ATOM     38  O   UNL     1     133.858 112.021 129.413  1.00  0.00    -0.207 OA
BRANCH  36  39
ATOM     39  C   UNL     1     135.693 113.870 129.793  1.00  0.00     0.188 C 
BRANCH  39  40
ATOM     40  C   UNL     1     136.368 112.925 130.762  1.00  0.00     0.174 C 
BRANCH  40  41
ATOM     41  O   UNL     1     136.999 111.881 130.025  1.00  0.00    -0.395 OA
ATOM     42  H   UNL     1     137.287 111.210 130.669  1.00  0.00     0.210 HD
ENDBRANCH  40  41
ENDBRANCH  39  40
ENDBRANCH  36  39
ENDBRANCH   1  36
TORSDOF 9
ENDMDL
MODEL 6
REMARK VINA RESULT:     -11.4      0.926      1.081
REMARK SMILES Cc1cc(NC(=O)c2ccc(NS(=O)(=O)CCO)cc2N2CCC3(CC2)CC3)nc(N2CCC(F)(F)CC2)n1
REMARK SMILES IDX 12 1 11 3 8 4 20 5 9 6 19 7 10 8 6 9 5 10 7 12 4 13 1 14
REMARK SMILES IDX 2 15 3 16 39 17 30 18 29 19 31 20 32 21 38 22 33 23 37 24
REMARK SMILES IDX 34 25 35 26 36 27 21 28 22 29 26 30 23 31 25 32 24 33 27 34
REMARK SMILES IDX 28 35 13 36 14 37 15 38 16 39 17 40 18 41
REMARK H PARENT 12 2 5 11 18 42
REMARK Flexibility Score: inf
ROOT
ATOM      1  N   UNL     1     133.357 113.776 128.681  1.00  0.00    -0.283 N 
ATOM      2  H   UNL     1     132.983 113.567 127.755  1.00  0.00     0.180 HD
ENDROOT
BRANCH   1   3
ATOM      3  C   UNL     1     132.781 114.864 129.396  1.00  0.00     0.051 A 
ATOM      4  C   UNL     1     131.575 116.980 130.811  1.00  0.00     0.063 A 
ATOM      5  C   UNL     1     131.023 115.674 130.897  1.00  0.00     0.052 A 
ATOM      6  C   UNL     1     132.721 117.191 130.021  1.00  0.00     0.018 A 
ATOM      7  C   UNL     1     131.651 114.632 130.183  1.00  0.00     0.053 A 
ATOM      8  C   UNL     1     133.318 116.142 129.318  1.00  0.00     0.028 A 
BRANCH   4   9
ATOM      9  C   UNL     1     131.013 118.195 131.506  1.00  0.00     0.258 C 
ATOM     10  N   UNL     1     130.564 117.995 132.785  1.00  0.00    -0.306 N 
ATOM     11  H   UNL     1     130.670 117.057 133.163  1.00  0.00     0.171 HD
ATOM     12  O   UNL     1     130.979 119.266 130.908  1.00  0.00    -0.269 OA
BRANCH  10  13
ATOM     13  C   UNL     1     130.000 118.898 133.683  1.00  0.00     0.138 A 
ATOM     14  C   UNL     1     129.069 122.452 134.258  1.00  0.00     0.067 C 
ATOM     15  C   UNL     1     129.274 120.978 134.431  1.00  0.00     0.045 A 
ATOM     16  C   UNL     1     129.855 120.238 133.429  1.00  0.00     0.070 A 
ATOM     17  N   UNL     1     128.866 120.428 135.592  1.00  0.00    -0.218 NA
ATOM     18  C   UNL     1     129.045 119.112 135.771  1.00  0.00     0.227 A 
ATOM     19  N   UNL     1     129.602 118.331 134.836  1.00  0.00    -0.195 NA
BRANCH  18  20
ATOM     20  N   UNL     1     128.633 118.532 136.969  1.00  0.00    -0.340 N 
ATOM     21  C   UNL     1     127.329 117.869 136.962  1.00  0.00     0.126 C 
ATOM     22  C   UNL     1     129.660 117.858 137.762  1.00  0.00     0.126 C 
ATOM     23  C   UNL     1     127.469 116.457 136.410  1.00  0.00     0.098 C 
ATOM     24  C   UNL     1     129.879 116.447 137.234  1.00  0.00     0.098 C 
ATOM     25  C   UNL     1     128.551 115.718 137.175  1.00  0.00     0.251 C 
ATOM     26  F   UNL     1     128.739 114.493 136.618  1.00  0.00    -0.207 F 
ATOM     27  F   UNL     1     128.117 115.486 138.445  1.00  0.00    -0.207 F 
ENDBRANCH  18  20
ENDBRANCH  10  13
ENDBRANCH   4   9
BRANCH   5  28
ATOM     28  N   UNL     1     129.887 115.401 131.697  1.00  0.00    -0.371 N 
ATOM     29  C   UNL     1     128.576 115.647 131.040  1.00  0.00     0.117 C 
ATOM     30  C   UNL     1     130.016 114.112 132.423  1.00  0.00     0.117 C 
ATOM     31  C   UNL     1     127.714 114.385 130.950  1.00  0.00     0.028 C 
ATOM     32  C   UNL     1     128.742 113.833 133.224  1.00  0.00     0.028 C 
ATOM     33  C   UNL     1     127.527 113.746 132.314  1.00  0.00    -0.026 C 
ATOM     34  C   UNL     1     126.646 112.515 132.397  1.00  0.00     0.008 C 
ATOM     35  C   UNL     1     126.160 113.814 132.966  1.00  0.00     0.008 C 
ENDBRANCH   5  28
ENDBRANCH   1   3
BRANCH   1  36
ATOM     36  S   UNL     1     135.015 113.492 128.780  1.00  0.00     0.234 S 
ATOM     37  O   UNL     1     135.593 114.744 129.225  1.00  0.00    -0.207 OA
ATOM     38  O   UNL     1     135.473 112.845 127.572  1.00  0.00    -0.207 OA
BRANCH  36  39
ATOM     39  C   UNL     1     135.127 112.336 130.132  1.00  0.00     0.188 C 
BRANCH  39  40
ATOM     40  C   UNL     1     136.446 111.598 130.077  1.00  0.00     0.174 C 
BRANCH  40  41
ATOM     41  O   UNL     1     137.501 112.548 129.946  1.00  0.00    -0.395 OA
ATOM     42  H   UNL     1     137.573 112.765 129.000  1.00  0.00     0.210 HD
ENDBRANCH  40  41
ENDBRANCH  39  40
ENDBRANCH  36  39
ENDBRANCH   1  36
TORSDOF 9
ENDMDL
MODEL 7
REMARK VINA RESULT:     -11.4      1.326      2.178
REMARK SMILES Cc1cc(NC(=O)c2ccc(NS(=O)(=O)CCO)cc2N2CCC3(CC2)CC3)nc(N2CCC(F)(F)CC2)n1
REMARK SMILES IDX 12 1 11 3 8 4 20 5 9 6 19 7 10 8 6 9 5 10 7 12 4 13 1 14
REMARK SMILES IDX 2 15 3 16 39 17 30 18 29 19 31 20 32 21 38 22 33 23 37 24
REMARK SMILES IDX 34 25 35 26 36 27 21 28 22 29 26 30 23 31 25 32 24 33 27 34
REMARK SMILES IDX 28 35 13 36 14 37 15 38 16 39 17 40 18 41
REMARK H PARENT 12 2 5 11 18 42
REMARK Flexibility Score: inf
ROOT
ATOM      1  N   UNL     1     134.333 114.478 128.707  1.00  0.00    -0.283 N 
ATOM      2  H   UNL     1     135.276 114.306 129.054  1.00  0.00     0.180 HD
ENDROOT
BRANCH   1   3
ATOM      3  C   UNL     1     133.551 115.462 129.375  1.00  0.00     0.051 A 
ATOM      4  C   UNL     1     131.944 117.363 130.692  1.00  0.00     0.063 A 
ATOM      5  C   UNL     1     131.590 115.989 130.745  1.00  0.00     0.052 A 
ATOM      6  C   UNL     1     133.097 117.749 129.984  1.00  0.00     0.018 A 
ATOM      7  C   UNL     1     132.416 115.057 130.081  1.00  0.00     0.053 A 
ATOM      8  C   UNL     1     133.894 116.807 129.330  1.00  0.00     0.028 A 
BRANCH   4   9
ATOM      9  C   UNL     1     131.158 118.475 131.341  1.00  0.00     0.258 C 
ATOM     10  N   UNL     1     130.777 118.257 132.639  1.00  0.00    -0.306 N 
ATOM     11  H   UNL     1     131.077 117.381 133.060  1.00  0.00     0.171 HD
ATOM     12  O   UNL     1     130.898 119.484 130.692  1.00  0.00    -0.269 OA
BRANCH  10  13
ATOM     13  C   UNL     1     130.056 119.075 133.506  1.00  0.00     0.138 A 
ATOM     14  C   UNL     1     128.997 122.564 134.239  1.00  0.00     0.067 C 
ATOM     15  C   UNL     1     129.186 121.078 134.306  1.00  0.00     0.045 A 
ATOM     16  C   UNL     1     129.942 120.433 133.356  1.00  0.00     0.070 A 
ATOM     17  N   UNL     1     128.590 120.424 135.323  1.00  0.00    -0.218 NA
ATOM     18  C   UNL     1     128.751 119.096 135.406  1.00  0.00     0.227 A 
ATOM     19  N   UNL     1     129.470 118.404 134.514  1.00  0.00    -0.195 NA
BRANCH  18  20
ATOM     20  N   UNL     1     128.144 118.408 136.455  1.00  0.00    -0.340 N 
ATOM     21  C   UNL     1     127.904 116.979 136.251  1.00  0.00     0.126 C 
ATOM     22  C   UNL     1     128.558 118.774 137.809  1.00  0.00     0.126 C 
ATOM     23  C   UNL     1     129.169 116.192 136.562  1.00  0.00     0.098 C 
ATOM     24  C   UNL     1     129.846 118.048 138.170  1.00  0.00     0.098 C 
ATOM     25  C   UNL     1     129.667 116.558 137.947  1.00  0.00     0.251 C 
ATOM     26  F   UNL     1     130.847 115.927 138.183  1.00  0.00    -0.207 F 
ATOM     27  F   UNL     1     128.795 116.075 138.875  1.00  0.00    -0.207 F 
ENDBRANCH  18  20
ENDBRANCH  10  13
ENDBRANCH   4   9
BRANCH   5  28
ATOM     28  N   UNL     1     130.455 115.543 131.464  1.00  0.00    -0.371 N 
ATOM     29  C   UNL     1     129.145 115.987 130.918  1.00  0.00     0.117 C 
ATOM     30  C   UNL     1     130.553 114.104 131.822  1.00  0.00     0.117 C 
ATOM     31  C   UNL     1     128.246 114.815 130.514  1.00  0.00     0.028 C 
ATOM     32  C   UNL     1     129.280 113.656 132.543  1.00  0.00     0.028 C 
ATOM     33  C   UNL     1     128.054 113.843 131.663  1.00  0.00    -0.026 C 
ATOM     34  C   UNL     1     127.139 112.657 131.433  1.00  0.00     0.008 C 
ATOM     35  C   UNL     1     126.696 113.770 132.334  1.00  0.00     0.008 C 
ENDBRANCH   5  28
ENDBRANCH   1   3
BRANCH   1  36
ATOM     36  S   UNL     1     133.598 113.074 128.130  1.00  0.00     0.234 S 
ATOM     37  O   UNL     1     133.444 112.218 129.288  1.00  0.00    -0.207 OA
ATOM     38  O   UNL     1     134.287 112.613 126.946  1.00  0.00    -0.207 OA
BRANCH  36  39
ATOM     39  C   UNL     1     131.977 113.651 127.666  1.00  0.00     0.188 C 
BRANCH  39  40
ATOM     40  C   UNL     1     131.063 112.475 127.403  1.00  0.00     0.174 C 
BRANCH  40  41
ATOM     41  O   UNL     1     131.817 111.433 126.789  1.00  0.00    -0.395 OA
ATOM     42  H   UNL     1     132.592 111.270 127.356  1.00  0.00     0.210 HD
ENDBRANCH  40  41
ENDBRANCH  39  40
ENDBRANCH  36  39
ENDBRANCH   1  36
TORSDOF 9
ENDMDL
MODEL 8
REMARK VINA RESULT:     -11.4      1.128      1.828
REMARK SMILES Cc1cc(NC(=O)c2ccc(NS(=O)(=O)CCO)cc2N2CCC3(CC2)CC3)nc(N2CCC(F)(F)CC2)n1
REMARK SMILES IDX 12 1 11 3 8 4 20 5 9 6 19 7 10 8 6 9 5 10 7 12 4 13 1 14
REMARK SMILES IDX 2 15 3 16 39 17 30 18 29 19 31 20 32 21 38 22 33 23 37 24
REMARK SMILES IDX 34 25 35 26 36 27 21 28 22 29 26 30 23 31 25 32 24 33 27 34
REMARK SMILES IDX 28 35 13 36 14 37 15 38 16 39 17 40 18 41
REMARK H PARENT 12 2 5 11 18 42
REMARK Flexibility Score: inf
ROOT
ATOM      1  N   UNL     1     134.250 114.510 128.662  1.00  0.00    -0.283 N 
ATOM      2  H   UNL     1     135.211 114.343 128.958  1.00  0.00     0.180 HD
ENDROOT
BRANCH   1   3
ATOM      3  C   UNL     1     133.493 115.472 129.389  1.00  0.00     0.051 A 
ATOM      4  C   UNL     1     131.934 117.330 130.821  1.00  0.00     0.063 A 
ATOM      5  C   UNL     1     131.562 115.959 130.815  1.00  0.00     0.052 A 
ATOM      6  C   UNL     1     133.080 117.734 130.113  1.00  0.00     0.018 A 
ATOM      7  C   UNL     1     132.364 115.049 130.094  1.00  0.00     0.053 A 
ATOM      8  C   UNL     1     133.853 116.813 129.401  1.00  0.00     0.028 A 
BRANCH   4   9
ATOM      9  C   UNL     1     131.173 118.420 131.535  1.00  0.00     0.258 C 
ATOM     10  N   UNL     1     130.947 118.213 132.870  1.00  0.00    -0.306 N 
ATOM     11  H   UNL     1     131.330 117.360 133.270  1.00  0.00     0.171 HD
ATOM     12  O   UNL     1     130.799 119.403 130.902  1.00  0.00    -0.269 OA
BRANCH  10  13
ATOM     13  C   UNL     1     130.289 119.016 133.798  1.00  0.00     0.138 A 
ATOM     14  C   UNL     1     128.631 122.298 134.362  1.00  0.00     0.067 C 
ATOM     15  C   UNL     1     129.186 120.919 134.557  1.00  0.00     0.045 A 
ATOM     16  C   UNL     1     129.814 120.273 133.519  1.00  0.00     0.070 A 
ATOM     17  N   UNL     1     129.040 120.359 135.775  1.00  0.00    -0.218 NA
ATOM     18  C   UNL     1     129.535 119.130 135.974  1.00  0.00     0.227 A 
ATOM     19  N   UNL     1     130.155 118.442 135.006  1.00  0.00    -0.195 NA
BRANCH  18  20
ATOM     20  N   UNL     1     129.395 118.542 137.229  1.00  0.00    -0.340 N 
ATOM     21  C   UNL     1     128.059 118.579 137.825  1.00  0.00     0.126 C 
ATOM     22  C   UNL     1     130.138 117.306 137.464  1.00  0.00     0.126 C 
ATOM     23  C   UNL     1     127.216 117.436 137.276  1.00  0.00     0.098 C 
ATOM     24  C   UNL     1     129.365 116.122 136.900  1.00  0.00     0.098 C 
ATOM     25  C   UNL     1     127.956 116.125 137.461  1.00  0.00     0.251 C 
ATOM     26  F   UNL     1     127.243 115.122 136.884  1.00  0.00    -0.207 F 
ATOM     27  F   UNL     1     128.008 115.828 138.789  1.00  0.00    -0.207 F 
ENDBRANCH  18  20
ENDBRANCH  10  13
ENDBRANCH   4   9
BRANCH   5  28
ATOM     28  N   UNL     1     130.432 115.495 131.532  1.00  0.00    -0.371 N 
ATOM     29  C   UNL     1     129.119 115.961 131.014  1.00  0.00     0.117 C 
ATOM     30  C   UNL     1     130.528 114.045 131.841  1.00  0.00     0.117 C 
ATOM     31  C   UNL     1     128.210 114.807 130.582  1.00  0.00     0.028 C 
ATOM     32  C   UNL     1     129.261 113.579 132.562  1.00  0.00     0.028 C 
ATOM     33  C   UNL     1     128.027 113.799 131.701  1.00  0.00    -0.026 C 
ATOM     34  C   UNL     1     127.104 112.625 131.443  1.00  0.00     0.008 C 
ATOM     35  C   UNL     1     126.676 113.710 132.384  1.00  0.00     0.008 C 
ENDBRANCH   5  28
ENDBRANCH   1   3
BRANCH   1  36
ATOM     36  S   UNL     1     133.502 113.111 128.094  1.00  0.00     0.234 S 
ATOM     37  O   UNL     1     133.373 112.248 129.251  1.00  0.00    -0.207 OA
ATOM     38  O   UNL     1     134.164 112.656 126.893  1.00  0.00    -0.207 OA
BRANCH  36  39
ATOM     39  C   UNL     1     131.871 113.691 127.670  1.00  0.00     0.188 C 
BRANCH  39  40
ATOM     40  C   UNL     1     130.977 112.521 127.323  1.00  0.00     0.174 C 
BRANCH  40  41
ATOM     41  O   UNL     1     131.787 111.441 126.867  1.00  0.00    -0.395 OA
ATOM     42  H   UNL     1     132.333 111.156 127.621  1.00  0.00     0.210 HD
ENDBRANCH  40  41
ENDBRANCH  39  40
ENDBRANCH  36  39
ENDBRANCH   1  36
TORSDOF 9
ENDMDL
MODEL 9
REMARK VINA RESULT:     -11.2      1.173      1.609
REMARK SMILES Cc1cc(NC(=O)c2ccc(NS(=O)(=O)CCO)cc2N2CCC3(CC2)CC3)nc(N2CCC(F)(F)CC2)n1
REMARK SMILES IDX 12 1 11 3 8 4 20 5 9 6 19 7 10 8 6 9 5 10 7 12 4 13 1 14
REMARK SMILES IDX 2 15 3 16 39 17 30 18 29 19 31 20 32 21 38 22 33 23 37 24
REMARK SMILES IDX 34 25 35 26 36 27 21 28 22 29 26 30 23 31 25 32 24 33 27 34
REMARK SMILES IDX 28 35 13 36 14 37 15 38 16 39 17 40 18 41
REMARK H PARENT 12 2 5 11 18 42
REMARK Flexibility Score: inf
ROOT
ATOM      1  N   UNL     1     133.718 115.238 128.573  1.00  0.00    -0.283 N 
ATOM      2  H   UNL     1     134.173 115.682 127.775  1.00  0.00     0.180 HD
ENDROOT
BRANCH   1   3
ATOM      3  C   UNL     1     132.998 116.072 129.473  1.00  0.00     0.051 A 
ATOM      4  C   UNL     1     131.513 117.680 131.245  1.00  0.00     0.063 A 
ATOM      5  C   UNL     1     131.146 116.322 131.055  1.00  0.00     0.052 A 
ATOM      6  C   UNL     1     132.619 118.198 130.545  1.00  0.00     0.018 A 
ATOM      7  C   UNL     1     131.910 115.537 130.166  1.00  0.00     0.053 A 
ATOM      8  C   UNL     1     133.355 117.401 129.665  1.00  0.00     0.028 A 
BRANCH   4   9
ATOM      9  C   UNL     1     130.789 118.644 132.152  1.00  0.00     0.258 C 
ATOM     10  N   UNL     1     130.505 118.181 133.409  1.00  0.00    -0.306 N 
ATOM     11  H   UNL     1     130.826 117.242 133.632  1.00  0.00     0.171 HD
ATOM     12  O   UNL     1     130.491 119.757 131.728  1.00  0.00    -0.269 OA
BRANCH  10  13
ATOM     13  C   UNL     1     129.859 118.815 134.468  1.00  0.00     0.138 A 
ATOM     14  C   UNL     1     128.391 122.012 135.674  1.00  0.00     0.067 C 
ATOM     15  C   UNL     1     128.848 120.587 135.585  1.00  0.00     0.045 A 
ATOM     16  C   UNL     1     129.478 120.132 134.451  1.00  0.00     0.070 A 
ATOM     17  N   UNL     1     128.613 119.794 136.650  1.00  0.00    -0.218 NA
ATOM     18  C   UNL     1     129.019 118.518 136.595  1.00  0.00     0.227 A 
ATOM     19  N   UNL     1     129.635 118.008 135.521  1.00  0.00    -0.195 NA
BRANCH  18  20
ATOM     20  N   UNL     1     128.786 117.689 137.691  1.00  0.00    -0.340 N 
ATOM     21  C   UNL     1     127.535 117.900 138.418  1.00  0.00     0.126 C 
ATOM     22  C   UNL     1     129.190 116.291 137.556  1.00  0.00     0.126 C 
ATOM     23  C   UNL     1     126.398 117.170 137.716  1.00  0.00     0.098 C 
ATOM     24  C   UNL     1     128.109 115.509 136.822  1.00  0.00     0.098 C 
ATOM     25  C   UNL     1     126.777 115.715 137.516  1.00  0.00     0.251 C 
ATOM     26  F   UNL     1     125.801 115.090 136.805  1.00  0.00    -0.207 F 
ATOM     27  F   UNL     1     126.809 115.093 138.728  1.00  0.00    -0.207 F 
ENDBRANCH  18  20
ENDBRANCH  10  13
ENDBRANCH   4   9
BRANCH   5  28
ATOM     28  N   UNL     1     130.057 115.744 131.753  1.00  0.00    -0.371 N 
ATOM     29  C   UNL     1     128.714 116.047 131.193  1.00  0.00     0.117 C 
ATOM     30  C   UNL     1     130.310 114.321 132.096  1.00  0.00     0.117 C 
ATOM     31  C   UNL     1     127.955 114.789 130.763  1.00  0.00     0.028 C 
ATOM     32  C   UNL     1     129.085 113.725 132.794  1.00  0.00     0.028 C 
ATOM     33  C   UNL     1     127.857 113.787 131.899  1.00  0.00    -0.026 C 
ATOM     34  C   UNL     1     127.082 112.510 131.643  1.00  0.00     0.008 C 
ATOM     35  C   UNL     1     126.507 113.556 132.549  1.00  0.00     0.008 C 
ENDBRANCH   5  28
ENDBRANCH   1   3
BRANCH   1  36
ATOM     36  S   UNL     1     134.602 113.931 129.166  1.00  0.00     0.234 S 
ATOM     37  O   UNL     1     133.811 113.396 130.256  1.00  0.00    -0.207 OA
ATOM     38  O   UNL     1     135.979 114.322 129.364  1.00  0.00    -0.207 OA
BRANCH  36  39
ATOM     39  C   UNL     1     134.520 112.767 127.819  1.00  0.00     0.188 C 
BRANCH  39  40
ATOM     40  C   UNL     1     133.201 112.907 127.091  1.00  0.00     0.174 C 
BRANCH  40  41
ATOM     41  O   UNL     1     132.139 112.808 128.038  1.00  0.00    -0.395 OA
ATOM     42  H   UNL     1     131.711 111.945 127.897  1.00  0.00     0.210 HD
ENDBRANCH  40  41
ENDBRANCH  39  40
ENDBRANCH  36  39
ENDBRANCH   1  36
TORSDOF 9
ENDMDL
