MODEL 1
REMARK VINA RESULT:     -11.8      0.000      0.000
REMARK SMILES Cc1cccc(Nc2ncnc3cc(NS(=O)(=O)CCO)cc(N4CCC5(CC4)CC5)c23)c1
REMARK SMILES IDX 16 1 17 2 18 3 15 4 14 6 32 7 12 8 23 9 8 10 13 11 11 12
REMARK SMILES IDX 22 13 9 14 10 15 24 16 25 17 29 18 26 19 28 20 27 21 30 22
REMARK SMILES IDX 31 23 7 24 6 26 5 27 33 28 4 29 2 30 3 31 1 32 19 33 20 34
REMARK SMILES IDX 21 35
REMARK H PARENT 15 5 7 25 21 36
REMARK Flexibility Score: inf
ROOT
ATOM      1  S   UNL     1     135.019 113.624 129.759  1.00  0.00     0.234 S 
ATOM      2  O   UNL     1     134.313 112.558 130.438  1.00  0.00    -0.207 OA
ATOM      3  O   UNL     1     135.782 114.604 130.501  1.00  0.00    -0.207 OA
ENDROOT
BRANCH   1   4
ATOM      4  N   UNL     1     133.840 114.403 128.822  1.00  0.00    -0.283 N 
ATOM      5  H   UNL     1     133.249 113.693 128.383  1.00  0.00     0.180 HD
BRANCH   4   6
ATOM      6  C   UNL     1     133.140 115.485 129.435  1.00  0.00     0.053 A 
ATOM      7  C   UNL     1     131.855 117.635 130.714  1.00  0.00     0.067 A 
ATOM      8  C   UNL     1     133.072 117.831 130.036  1.00  0.00     0.080 A 
ATOM      9  C   UNL     1     131.293 116.309 130.762  1.00  0.00     0.052 A 
ATOM     10  C   UNL     1     131.323 118.812 131.307  1.00  0.00     0.143 A 
ATOM     11  C   UNL     1     133.695 116.758 129.417  1.00  0.00     0.056 A 
ATOM     12  N   UNL     1     133.688 119.011 129.948  1.00  0.00    -0.236 NA
ATOM     13  C   UNL     1     131.950 115.253 130.108  1.00  0.00     0.053 A 
ATOM     14  N   UNL     1     131.942 120.006 131.218  1.00  0.00    -0.219 NA
ATOM     15  C   UNL     1     133.093 120.043 130.548  1.00  0.00     0.224 A 
BRANCH   9  16
ATOM     16  N   UNL     1     130.086 116.066 131.478  1.00  0.00    -0.371 N 
ATOM     17  C   UNL     1     130.199 115.008 132.516  1.00  0.00     0.117 C 
ATOM     18  C   UNL     1     128.925 115.951 130.561  1.00  0.00     0.117 C 
ATOM     19  C   UNL     1     129.315 113.792 132.221  1.00  0.00     0.028 C 
ATOM     20  C   UNL     1     127.674 115.544 131.344  1.00  0.00     0.028 C 
ATOM     21  C   UNL     1     127.865 114.196 132.021  1.00  0.00    -0.026 C 
ATOM     22  C   UNL     1     126.845 113.788 133.065  1.00  0.00     0.008 C 
ATOM     23  C   UNL     1     126.864 113.094 131.737  1.00  0.00     0.008 C 
ENDBRANCH   9  16
BRANCH  10  24
ATOM     24  N   UNL     1     130.081 118.727 131.981  1.00  0.00    -0.340 N 
ATOM     25  H   UNL     1     129.475 118.063 131.495  1.00  0.00     0.168 HD
BRANCH  24  26
ATOM     26  C   UNL     1     129.650 119.098 133.262  1.00  0.00     0.040 A 
ATOM     27  C   UNL     1     129.246 120.425 133.473  1.00  0.00     0.026 A 
ATOM     28  C   UNL     1     129.629 118.231 134.360  1.00  0.00     0.029 A 
ATOM     29  C   UNL     1     128.814 120.865 134.728  1.00  0.00     0.002 A 
ATOM     30  C   UNL     1     129.211 118.661 135.632  1.00  0.00    -0.049 A 
ATOM     31  C   UNL     1     128.790 119.982 135.804  1.00  0.00     0.003 A 
ATOM     32  C   UNL     1     129.166 117.692 136.776  1.00  0.00     0.044 C 
ENDBRANCH  24  26
ENDBRANCH  10  24
ENDBRANCH   4   6
ENDBRANCH   1   4
BRANCH   1  33
ATOM     33  C   UNL     1     136.047 112.893 128.504  1.00  0.00     0.188 C 
BRANCH  33  34
ATOM     34  C   UNL     1     137.246 112.224 129.141  1.00  0.00     0.174 C 
BRANCH  34  35
ATOM     35  O   UNL     1     137.133 112.320 130.559  1.00  0.00    -0.395 OA
ATOM     36  H   UNL     1     136.828 111.454 130.882  1.00  0.00     0.210 HD
ENDBRANCH  34  35
ENDBRANCH  33  34
ENDBRANCH   1  33
TORSDOF 8
ENDMDL
MODEL 2
REMARK VINA RESULT:     -11.7      4.384      7.293
REMARK SMILES Cc1cccc(Nc2ncnc3cc(NS(=O)(=O)CCO)cc(N4CCC5(CC4)CC5)c23)c1
REMARK SMILES IDX 16 1 17 2 18 3 15 4 14 6 32 7 12 8 23 9 8 10 13 11 11 12
REMARK SMILES IDX 22 13 9 14 10 15 24 16 25 17 29 18 26 19 28 20 27 21 30 22
REMARK SMILES IDX 31 23 7 24 6 26 5 27 33 28 4 29 2 30 3 31 1 32 19 33 20 34
REMARK SMILES IDX 21 35
REMARK H PARENT 15 5 7 25 21 36
REMARK Flexibility Score: inf
ROOT
ATOM      1  S   UNL     1     128.929 118.215 138.486  1.00  0.00     0.234 S 
ATOM      2  O   UNL     1     128.089 118.602 139.600  1.00  0.00    -0.207 OA
ATOM      3  O   UNL     1     130.285 118.705 138.370  1.00  0.00    -0.207 OA
ENDROOT
BRANCH   1   4
ATOM      4  N   UNL     1     128.043 118.638 137.103  1.00  0.00    -0.283 N 
ATOM      5  H   UNL     1     127.548 119.513 137.286  1.00  0.00     0.180 HD
BRANCH   4   6
ATOM      6  C   UNL     1     128.730 118.576 135.853  1.00  0.00     0.053 A 
ATOM      7  C   UNL     1     130.027 118.554 133.358  1.00  0.00     0.067 A 
ATOM      8  C   UNL     1     130.169 119.651 134.227  1.00  0.00     0.080 A 
ATOM      9  C   UNL     1     129.186 117.455 133.760  1.00  0.00     0.052 A 
ATOM     10  C   UNL     1     130.743 118.683 132.137  1.00  0.00     0.143 A 
ATOM     11  C   UNL     1     129.516 119.648 135.451  1.00  0.00     0.056 A 
ATOM     12  N   UNL     1     130.905 120.727 133.946  1.00  0.00    -0.236 NA
ATOM     13  C   UNL     1     128.556 117.486 135.014  1.00  0.00     0.053 A 
ATOM     14  N   UNL     1     131.489 119.768 131.852  1.00  0.00    -0.219 NA
ATOM     15  C   UNL     1     131.529 120.734 132.766  1.00  0.00     0.224 A 
BRANCH   9  16
ATOM     16  N   UNL     1     128.984 116.349 132.885  1.00  0.00    -0.371 N 
ATOM     17  C   UNL     1     127.697 116.390 132.142  1.00  0.00     0.117 C 
ATOM     18  C   UNL     1     129.304 115.063 133.554  1.00  0.00     0.117 C 
ATOM     19  C   UNL     1     126.765 115.230 132.508  1.00  0.00     0.028 C 
ATOM     20  C   UNL     1     128.937 113.889 132.642  1.00  0.00     0.028 C 
ATOM     21  C   UNL     1     127.451 113.888 132.323  1.00  0.00    -0.026 C 
ATOM     22  C   UNL     1     126.977 112.978 131.207  1.00  0.00     0.008 C 
ATOM     23  C   UNL     1     126.645 112.642 132.629  1.00  0.00     0.008 C 
ENDBRANCH   9  16
BRANCH  10  24
ATOM     24  N   UNL     1     130.696 117.614 131.210  1.00  0.00    -0.340 N 
ATOM     25  H   UNL     1     129.770 117.576 130.780  1.00  0.00     0.168 HD
BRANCH  24  26
ATOM     26  C   UNL     1     131.679 116.846 130.571  1.00  0.00     0.040 A 
ATOM     27  C   UNL     1     132.689 117.512 129.859  1.00  0.00     0.026 A 
ATOM     28  C   UNL     1     131.699 115.447 130.569  1.00  0.00     0.029 A 
ATOM     29  C   UNL     1     133.695 116.809 129.191  1.00  0.00     0.002 A 
ATOM     30  C   UNL     1     132.696 114.724 129.889  1.00  0.00    -0.049 A 
ATOM     31  C   UNL     1     133.702 115.417 129.212  1.00  0.00     0.003 A 
ATOM     32  C   UNL     1     132.705 113.225 129.943  1.00  0.00     0.044 C 
ENDBRANCH  24  26
ENDBRANCH  10  24
ENDBRANCH   4   6
ENDBRANCH   1   4
BRANCH   1  33
ATOM     33  C   UNL     1     128.925 116.439 138.383  1.00  0.00     0.188 C 
BRANCH  33  34
ATOM     34  C   UNL     1     127.513 115.936 138.165  1.00  0.00     0.174 C 
BRANCH  34  35
ATOM     35  O   UNL     1     126.813 115.963 139.406  1.00  0.00    -0.395 OA
ATOM     36  H   UNL     1     125.877 116.137 139.203  1.00  0.00     0.210 HD
ENDBRANCH  34  35
ENDBRANCH  33  34
ENDBRANCH   1  33
TORSDOF 8
ENDMDL
MODEL 3
REMARK VINA RESULT:     -11.5      3.905      7.112
REMARK SMILES Cc1cccc(Nc2ncnc3cc(NS(=O)(=O)CCO)cc(N4CCC5(CC4)CC5)c23)c1
REMARK SMILES IDX 16 1 17 2 18 3 15 4 14 6 32 7 12 8 23 9 8 10 13 11 11 12
REMARK SMILES IDX 22 13 9 14 10 15 24 16 25 17 29 18 26 19 28 20 27 21 30 22
REMARK SMILES IDX 31 23 7 24 6 26 5 27 33 28 4 29 2 30 3 31 1 32 19 33 20 34
REMARK SMILES IDX 21 35
REMARK H PARENT 15 5 7 25 21 36
REMARK Flexibility Score: inf
ROOT
ATOM      1  S   UNL     1     129.403 119.395 136.553  1.00  0.00     0.234 S 
ATOM      2  O   UNL     1     128.790 120.369 137.432  1.00  0.00    -0.207 OA
ATOM      3  O   UNL     1     130.802 119.051 136.683  1.00  0.00    -0.207 OA
ENDROOT
BRANCH   1   4
ATOM      4  N   UNL     1     129.093 119.964 134.985  1.00  0.00    -0.283 N 
ATOM      5  H   UNL     1     129.132 120.985 134.994  1.00  0.00     0.180 HD
BRANCH   4   6
ATOM      6  C   UNL     1     129.805 119.336 133.919  1.00  0.00     0.053 A 
ATOM      7  C   UNL     1     131.176 118.189 131.749  1.00  0.00     0.067 A 
ATOM      8  C   UNL     1     131.533 119.463 132.227  1.00  0.00     0.080 A 
ATOM      9  C   UNL     1     130.080 117.495 132.376  1.00  0.00     0.052 A 
ATOM     10  C   UNL     1     131.960 117.739 130.651  1.00  0.00     0.143 A 
ATOM     11  C   UNL     1     130.841 120.016 133.294  1.00  0.00     0.056 A 
ATOM     12  N   UNL     1     132.517 120.199 131.708  1.00  0.00    -0.236 NA
ATOM     13  C   UNL     1     129.416 118.085 133.463  1.00  0.00     0.053 A 
ATOM     14  N   UNL     1     132.955 118.479 130.127  1.00  0.00    -0.219 NA
ATOM     15  C   UNL     1     133.180 119.671 130.677  1.00  0.00     0.224 A 
BRANCH   9  16
ATOM     16  N   UNL     1     129.663 116.223 131.888  1.00  0.00    -0.371 N 
ATOM     17  C   UNL     1     128.394 116.257 131.114  1.00  0.00     0.117 C 
ATOM     18  C   UNL     1     129.750 115.182 132.942  1.00  0.00     0.117 C 
ATOM     19  C   UNL     1     127.269 115.463 131.786  1.00  0.00     0.028 C 
ATOM     20  C   UNL     1     129.157 113.866 132.432  1.00  0.00     0.028 C 
ATOM     21  C   UNL     1     127.691 114.031 132.065  1.00  0.00    -0.026 C 
ATOM     22  C   UNL     1     127.039 112.914 131.275  1.00  0.00     0.008 C 
ATOM     23  C   UNL     1     126.673 113.115 132.714  1.00  0.00     0.008 C 
ENDBRANCH   9  16
BRANCH  10  24
ATOM     24  N   UNL     1     131.703 116.451 130.122  1.00  0.00    -0.340 N 
ATOM     25  H   UNL     1     130.846 116.475 129.567  1.00  0.00     0.168 HD
BRANCH  24  26
ATOM     26  C   UNL     1     132.491 115.303 129.950  1.00  0.00     0.040 A 
ATOM     27  C   UNL     1     131.868 114.048 130.033  1.00  0.00     0.026 A 
ATOM     28  C   UNL     1     133.872 115.329 129.733  1.00  0.00     0.029 A 
ATOM     29  C   UNL     1     132.594 112.864 129.881  1.00  0.00     0.002 A 
ATOM     30  C   UNL     1     134.619 114.146 129.593  1.00  0.00    -0.049 A 
ATOM     31  C   UNL     1     133.966 112.913 129.655  1.00  0.00     0.003 A 
ATOM     32  C   UNL     1     136.093 114.216 129.324  1.00  0.00     0.044 C 
ENDBRANCH  24  26
ENDBRANCH  10  24
ENDBRANCH   4   6
ENDBRANCH   1   4
BRANCH   1  33
ATOM     33  C   UNL     1     128.417 117.915 136.597  1.00  0.00     0.188 C 
BRANCH  33  34
ATOM     34  C   UNL     1     128.066 117.569 138.028  1.00  0.00     0.174 C 
BRANCH  34  35
ATOM     35  O   UNL     1     129.144 117.955 138.878  1.00  0.00    -0.395 OA
ATOM     36  H   UNL     1     129.969 117.776 138.394  1.00  0.00     0.210 HD
ENDBRANCH  34  35
ENDBRANCH  33  34
ENDBRANCH   1  33
TORSDOF 8
ENDMDL
MODEL 4
REMARK VINA RESULT:     -11.5      3.588      7.099
REMARK SMILES Cc1cccc(Nc2ncnc3cc(NS(=O)(=O)CCO)cc(N4CCC5(CC4)CC5)c23)c1
REMARK SMILES IDX 16 1 17 2 18 3 15 4 14 6 32 7 12 8 23 9 8 10 13 11 11 12
REMARK SMILES IDX 22 13 9 14 10 15 24 16 25 17 29 18 26 19 28 20 27 21 30 22
REMARK SMILES IDX 31 23 7 24 6 26 5 27 33 28 4 29 2 30 3 31 1 32 19 33 20 34
REMARK SMILES IDX 21 35
REMARK H PARENT 15 5 7 25 21 36
REMARK Flexibility Score: inf
ROOT
ATOM      1  S   UNL     1     130.394 120.273 135.643  1.00  0.00     0.234 S 
ATOM      2  O   UNL     1     131.250 121.439 135.724  1.00  0.00    -0.207 OA
ATOM      3  O   UNL     1     130.901 118.955 135.954  1.00  0.00    -0.207 OA
ENDROOT
BRANCH   1   4
ATOM      4  N   UNL     1     129.774 120.294 134.065  1.00  0.00    -0.283 N 
ATOM      5  H   UNL     1     129.600 121.265 133.794  1.00  0.00     0.180 HD
BRANCH   4   6
ATOM      6  C   UNL     1     130.459 119.504 133.093  1.00  0.00     0.053 A 
ATOM      7  C   UNL     1     131.778 118.029 131.095  1.00  0.00     0.067 A 
ATOM      8  C   UNL     1     132.174 119.346 131.390  1.00  0.00     0.080 A 
ATOM      9  C   UNL     1     130.669 117.460 131.818  1.00  0.00     0.052 A 
ATOM     10  C   UNL     1     132.539 117.409 130.067  1.00  0.00     0.143 A 
ATOM     11  C   UNL     1     131.508 120.061 132.373  1.00  0.00     0.056 A 
ATOM     12  N   UNL     1     133.173 119.975 130.768  1.00  0.00    -0.236 NA
ATOM     13  C   UNL     1     130.032 118.214 132.817  1.00  0.00     0.053 A 
ATOM     14  N   UNL     1     133.549 118.041 129.439  1.00  0.00    -0.219 NA
ATOM     15  C   UNL     1     133.811 119.290 129.817  1.00  0.00     0.224 A 
BRANCH   9  16
ATOM     16  N   UNL     1     130.213 116.145 131.515  1.00  0.00    -0.371 N 
ATOM     17  C   UNL     1     129.013 116.107 130.638  1.00  0.00     0.117 C 
ATOM     18  C   UNL     1     130.153 115.297 132.731  1.00  0.00     0.117 C 
ATOM     19  C   UNL     1     127.792 115.495 131.333  1.00  0.00     0.028 C 
ATOM     20  C   UNL     1     129.521 113.942 132.397  1.00  0.00     0.028 C 
ATOM     21  C   UNL     1     128.102 114.113 131.881  1.00  0.00    -0.026 C 
ATOM     22  C   UNL     1     127.445 112.909 131.234  1.00  0.00     0.008 C 
ATOM     23  C   UNL     1     126.982 113.371 132.583  1.00  0.00     0.008 C 
ENDBRANCH   9  16
BRANCH  10  24
ATOM     24  N   UNL     1     132.243 116.068 129.723  1.00  0.00    -0.340 N 
ATOM     25  H   UNL     1     131.404 116.043 129.140  1.00  0.00     0.168 HD
BRANCH  24  26
ATOM     26  C   UNL     1     132.984 114.878 129.749  1.00  0.00     0.040 A 
ATOM     27  C   UNL     1     132.332 113.693 130.125  1.00  0.00     0.026 A 
ATOM     28  C   UNL     1     134.349 114.802 129.455  1.00  0.00     0.029 A 
ATOM     29  C   UNL     1     133.012 112.474 130.182  1.00  0.00     0.002 A 
ATOM     30  C   UNL     1     135.052 113.585 129.523  1.00  0.00    -0.049 A 
ATOM     31  C   UNL     1     134.369 112.419 129.874  1.00  0.00     0.003 A 
ATOM     32  C   UNL     1     136.507 113.538 129.163  1.00  0.00     0.044 C 
ENDBRANCH  24  26
ENDBRANCH  10  24
ENDBRANCH   4   6
ENDBRANCH   1   4
BRANCH   1  33
ATOM     33  C   UNL     1     128.932 120.594 136.605  1.00  0.00     0.188 C 
BRANCH  33  34
ATOM     34  C   UNL     1     128.416 119.304 137.208  1.00  0.00     0.174 C 
BRANCH  34  35
ATOM     35  O   UNL     1     128.205 118.355 136.165  1.00  0.00    -0.395 OA
ATOM     36  H   UNL     1     128.960 117.741 136.180  1.00  0.00     0.210 HD
ENDBRANCH  34  35
ENDBRANCH  33  34
ENDBRANCH   1  33
TORSDOF 8
ENDMDL
MODEL 5
REMARK VINA RESULT:     -11.4      0.440      1.148
REMARK SMILES Cc1cccc(Nc2ncnc3cc(NS(=O)(=O)CCO)cc(N4CCC5(CC4)CC5)c23)c1
REMARK SMILES IDX 16 1 17 2 18 3 15 4 14 6 32 7 12 8 23 9 8 10 13 11 11 12
REMARK SMILES IDX 22 13 9 14 10 15 24 16 25 17 29 18 26 19 28 20 27 21 30 22
REMARK SMILES IDX 31 23 7 24 6 26 5 27 33 28 4 29 2 30 3 31 1 32 19 33 20 34
REMARK SMILES IDX 21 35
REMARK H PARENT 15 5 7 25 21 36
REMARK Flexibility Score: inf
ROOT
ATOM      1  S   UNL     1     134.986 113.443 129.645  1.00  0.00     0.234 S 
ATOM      2  O   UNL     1     134.332 112.362 130.353  1.00  0.00    -0.207 OA
ATOM      3  O   UNL     1     135.756 114.441 130.356  1.00  0.00    -0.207 OA
ENDROOT
BRANCH   1   4
ATOM      4  N   UNL     1     133.753 114.193 128.755  1.00  0.00    -0.283 N 
ATOM      5  H   UNL     1     133.156 113.469 128.348  1.00  0.00     0.180 HD
BRANCH   4   6
ATOM      6  C   UNL     1     133.061 115.267 129.390  1.00  0.00     0.053 A 
ATOM      7  C   UNL     1     131.793 117.401 130.712  1.00  0.00     0.067 A 
ATOM      8  C   UNL     1     133.009 117.602 130.033  1.00  0.00     0.080 A 
ATOM      9  C   UNL     1     131.224 116.077 130.739  1.00  0.00     0.052 A 
ATOM     10  C   UNL     1     131.270 118.571 131.328  1.00  0.00     0.143 A 
ATOM     11  C   UNL     1     133.623 116.538 129.392  1.00  0.00     0.056 A 
ATOM     12  N   UNL     1     133.631 118.780 129.963  1.00  0.00    -0.236 NA
ATOM     13  C   UNL     1     131.873 115.030 130.064  1.00  0.00     0.053 A 
ATOM     14  N   UNL     1     131.895 119.762 131.257  1.00  0.00    -0.219 NA
ATOM     15  C   UNL     1     133.043 119.805 130.585  1.00  0.00     0.224 A 
BRANCH   9  16
ATOM     16  N   UNL     1     130.019 115.828 131.455  1.00  0.00    -0.371 N 
ATOM     17  C   UNL     1     130.106 114.695 132.413  1.00  0.00     0.117 C 
ATOM     18  C   UNL     1     128.842 115.822 130.551  1.00  0.00     0.117 C 
ATOM     19  C   UNL     1     129.173 113.537 132.047  1.00  0.00     0.028 C 
ATOM     20  C   UNL     1     127.587 115.406 131.324  1.00  0.00     0.028 C 
ATOM     21  C   UNL     1     127.736 114.007 131.899  1.00  0.00    -0.026 C 
ATOM     22  C   UNL     1     126.716 113.563 132.928  1.00  0.00     0.008 C 
ATOM     23  C   UNL     1     126.690 112.966 131.554  1.00  0.00     0.008 C 
ENDBRANCH   9  16
BRANCH  10  24
ATOM     24  N   UNL     1     130.030 118.480 132.005  1.00  0.00    -0.340 N 
ATOM     25  H   UNL     1     129.361 117.974 131.423  1.00  0.00     0.168 HD
BRANCH  24  26
ATOM     26  C   UNL     1     129.645 118.651 133.342  1.00  0.00     0.040 A 
ATOM     27  C   UNL     1     129.596 117.520 134.173  1.00  0.00     0.026 A 
ATOM     28  C   UNL     1     129.272 119.880 133.897  1.00  0.00     0.029 A 
ATOM     29  C   UNL     1     129.212 117.617 135.513  1.00  0.00     0.002 A 
ATOM     30  C   UNL     1     128.868 119.991 135.240  1.00  0.00    -0.049 A 
ATOM     31  C   UNL     1     128.856 118.852 136.047  1.00  0.00     0.003 A 
ATOM     32  C   UNL     1     128.512 121.333 135.807  1.00  0.00     0.044 C 
ENDBRANCH  24  26
ENDBRANCH  10  24
ENDBRANCH   4   6
ENDBRANCH   1   4
BRANCH   1  33
ATOM     33  C   UNL     1     135.980 112.733 128.351  1.00  0.00     0.188 C 
BRANCH  33  34
ATOM     34  C   UNL     1     137.395 112.517 128.844  1.00  0.00     0.174 C 
BRANCH  34  35
ATOM     35  O   UNL     1     137.357 112.136 130.217  1.00  0.00    -0.395 OA
ATOM     36  H   UNL     1     137.039 112.906 130.719  1.00  0.00     0.210 HD
ENDBRANCH  34  35
ENDBRANCH  33  34
ENDBRANCH   1  33
TORSDOF 8
ENDMDL
MODEL 6
REMARK VINA RESULT:     -11.2      1.082      1.218
REMARK SMILES Cc1cccc(Nc2ncnc3cc(NS(=O)(=O)CCO)cc(N4CCC5(CC4)CC5)c23)c1
REMARK SMILES IDX 16 1 17 2 18 3 15 4 14 6 32 7 12 8 23 9 8 10 13 11 11 12
REMARK SMILES IDX 22 13 9 14 10 15 24 16 25 17 29 18 26 19 28 20 27 21 30 22
REMARK SMILES IDX 31 23 7 24 6 26 5 27 33 28 4 29 2 30 3 31 1 32 19 33 20 34
REMARK SMILES IDX 21 35
REMARK H PARENT 15 5 7 25 21 36
REMARK Flexibility Score: inf
ROOT
ATOM      1  S   UNL     1     134.594 113.002 129.095  1.00  0.00     0.234 S 
ATOM      2  O   UNL     1     135.425 112.414 128.065  1.00  0.00    -0.207 OA
ATOM      3  O   UNL     1     133.835 112.171 130.004  1.00  0.00    -0.207 OA
ENDROOT
BRANCH   1   4
ATOM      4  N   UNL     1     133.550 114.053 128.269  1.00  0.00    -0.283 N 
ATOM      5  H   UNL     1     132.868 113.496 127.749  1.00  0.00     0.180 HD
BRANCH   4   6
ATOM      6  C   UNL     1     133.008 115.141 129.016  1.00  0.00     0.053 A 
ATOM      7  C   UNL     1     132.039 117.289 130.551  1.00  0.00     0.067 A 
ATOM      8  C   UNL     1     133.213 117.428 129.788  1.00  0.00     0.080 A 
ATOM      9  C   UNL     1     131.357 116.019 130.550  1.00  0.00     0.052 A 
ATOM     10  C   UNL     1     131.671 118.459 131.271  1.00  0.00     0.143 A 
ATOM     11  C   UNL     1     133.680 116.357 129.043  1.00  0.00     0.056 A 
ATOM     12  N   UNL     1     133.931 118.551 129.734  1.00  0.00    -0.236 NA
ATOM     13  C   UNL     1     131.857 114.965 129.769  1.00  0.00     0.053 A 
ATOM     14  N   UNL     1     132.393 119.594 131.215  1.00  0.00    -0.219 NA
ATOM     15  C   UNL     1     133.486 119.582 130.456  1.00  0.00     0.224 A 
BRANCH   9  16
ATOM     16  N   UNL     1     130.192 115.830 131.346  1.00  0.00    -0.371 N 
ATOM     17  C   UNL     1     130.277 114.678 132.282  1.00  0.00     0.117 C 
ATOM     18  C   UNL     1     128.956 115.909 130.527  1.00  0.00     0.117 C 
ATOM     19  C   UNL     1     129.253 113.583 131.967  1.00  0.00     0.028 C 
ATOM     20  C   UNL     1     127.736 115.555 131.381  1.00  0.00     0.028 C 
ATOM     21  C   UNL     1     127.841 114.140 131.927  1.00  0.00    -0.026 C 
ATOM     22  C   UNL     1     126.869 113.739 133.020  1.00  0.00     0.008 C 
ATOM     23  C   UNL     1     126.712 113.168 131.643  1.00  0.00     0.008 C 
ENDBRANCH   9  16
BRANCH  10  24
ATOM     24  N   UNL     1     130.482 118.432 132.039  1.00  0.00    -0.340 N 
ATOM     25  H   UNL     1     129.711 118.090 131.462  1.00  0.00     0.168 HD
BRANCH  24  26
ATOM     26  C   UNL     1     130.221 118.474 133.416  1.00  0.00     0.040 A 
ATOM     27  C   UNL     1     130.851 119.465 134.185  1.00  0.00     0.026 A 
ATOM     28  C   UNL     1     129.394 117.564 134.082  1.00  0.00     0.029 A 
ATOM     29  C   UNL     1     130.643 119.559 135.564  1.00  0.00     0.002 A 
ATOM     30  C   UNL     1     129.187 117.635 135.471  1.00  0.00    -0.049 A 
ATOM     31  C   UNL     1     129.807 118.649 136.204  1.00  0.00     0.003 A 
ATOM     32  C   UNL     1     128.262 116.663 136.143  1.00  0.00     0.044 C 
ENDBRANCH  24  26
ENDBRANCH  10  24
ENDBRANCH   4   6
ENDBRANCH   1   4
BRANCH   1  33
ATOM     33  C   UNL     1     135.592 114.145 130.023  1.00  0.00     0.188 C 
BRANCH  33  34
ATOM     34  C   UNL     1     136.410 113.399 131.055  1.00  0.00     0.174 C 
BRANCH  34  35
ATOM     35  O   UNL     1     137.070 112.305 130.423  1.00  0.00    -0.395 OA
ATOM     36  H   UNL     1     137.466 112.645 129.601  1.00  0.00     0.210 HD
ENDBRANCH  34  35
ENDBRANCH  33  34
ENDBRANCH   1  33
TORSDOF 8
ENDMDL
MODEL 7
REMARK VINA RESULT:     -11.2      4.127      7.354
REMARK SMILES Cc1cccc(Nc2ncnc3cc(NS(=O)(=O)CCO)cc(N4CCC5(CC4)CC5)c23)c1
REMARK SMILES IDX 16 1 17 2 18 3 15 4 14 6 32 7 12 8 23 9 8 10 13 11 11 12
REMARK SMILES IDX 22 13 9 14 10 15 24 16 25 17 29 18 26 19 28 20 27 21 30 22
REMARK SMILES IDX 31 23 7 24 6 26 5 27 33 28 4 29 2 30 3 31 1 32 19 33 20 34
REMARK SMILES IDX 21 35
REMARK H PARENT 15 5 7 25 21 36
REMARK Flexibility Score: inf
ROOT
ATOM      1  S   UNL     1     129.096 117.729 138.413  1.00  0.00     0.234 S 
ATOM      2  O   UNL     1     129.914 118.708 139.098  1.00  0.00    -0.207 OA
ATOM      3  O   UNL     1     129.674 116.513 137.885  1.00  0.00    -0.207 OA
ENDROOT
BRANCH   1   4
ATOM      4  N   UNL     1     128.331 118.591 137.169  1.00  0.00    -0.283 N 
ATOM      5  H   UNL     1     128.106 119.528 137.510  1.00  0.00     0.180 HD
BRANCH   4   6
ATOM      6  C   UNL     1     128.943 118.542 135.880  1.00  0.00     0.053 A 
ATOM      7  C   UNL     1     130.087 118.543 133.312  1.00  0.00     0.067 A 
ATOM      8  C   UNL     1     130.264 119.641 134.173  1.00  0.00     0.080 A 
ATOM      9  C   UNL     1     129.289 117.430 133.761  1.00  0.00     0.052 A 
ATOM     10  C   UNL     1     130.727 118.684 132.050  1.00  0.00     0.143 A 
ATOM     11  C   UNL     1     129.686 119.627 135.433  1.00  0.00     0.056 A 
ATOM     12  N   UNL     1     130.965 120.729 133.850  1.00  0.00    -0.236 NA
ATOM     13  C   UNL     1     128.735 117.450 135.051  1.00  0.00     0.053 A 
ATOM     14  N   UNL     1     131.438 119.781 131.722  1.00  0.00    -0.219 NA
ATOM     15  C   UNL     1     131.517 120.747 132.635  1.00  0.00     0.224 A 
BRANCH   9  16
ATOM     16  N   UNL     1     129.053 116.322 132.898  1.00  0.00    -0.371 N 
ATOM     17  C   UNL     1     127.785 116.414 132.126  1.00  0.00     0.117 C 
ATOM     18  C   UNL     1     129.296 115.032 133.591  1.00  0.00     0.117 C 
ATOM     19  C   UNL     1     126.790 115.306 132.488  1.00  0.00     0.028 C 
ATOM     20  C   UNL     1     128.891 113.864 132.687  1.00  0.00     0.028 C 
ATOM     21  C   UNL     1     127.414 113.930 132.336  1.00  0.00    -0.026 C 
ATOM     22  C   UNL     1     126.920 113.027 131.223  1.00  0.00     0.008 C 
ATOM     23  C   UNL     1     126.542 112.729 132.642  1.00  0.00     0.008 C 
ENDBRANCH   9  16
BRANCH  10  24
ATOM     24  N   UNL     1     130.640 117.616 131.125  1.00  0.00    -0.340 N 
ATOM     25  H   UNL     1     129.744 117.660 130.636  1.00  0.00     0.168 HD
BRANCH  24  26
ATOM     26  C   UNL     1     131.588 116.754 130.554  1.00  0.00     0.040 A 
ATOM     27  C   UNL     1     131.303 115.380 130.515  1.00  0.00     0.026 A 
ATOM     28  C   UNL     1     132.821 117.176 130.047  1.00  0.00     0.029 A 
ATOM     29  C   UNL     1     132.206 114.465 129.968  1.00  0.00     0.002 A 
ATOM     30  C   UNL     1     133.747 116.265 129.508  1.00  0.00    -0.049 A 
ATOM     31  C   UNL     1     133.423 114.908 129.459  1.00  0.00     0.003 A 
ATOM     32  C   UNL     1     135.044 116.761 128.939  1.00  0.00     0.044 C 
ENDBRANCH  24  26
ENDBRANCH  10  24
ENDBRANCH   4   6
ENDBRANCH   1   4
BRANCH   1  33
ATOM     33  C   UNL     1     127.719 117.328 139.467  1.00  0.00     0.188 C 
BRANCH  33  34
ATOM     34  C   UNL     1     126.970 116.136 138.909  1.00  0.00     0.174 C 
BRANCH  34  35
ATOM     35  O   UNL     1     126.528 116.441 137.589  1.00  0.00    -0.395 OA
ATOM     36  H   UNL     1     125.694 116.936 137.673  1.00  0.00     0.210 HD
ENDBRANCH  34  35
ENDBRANCH  33  34
ENDBRANCH   1  33
TORSDOF 8
ENDMDL
MODEL 8
REMARK VINA RESULT:     -11.1      1.169      1.589
REMARK SMILES Cc1cccc(Nc2ncnc3cc(NS(=O)(=O)CCO)cc(N4CCC5(CC4)CC5)c23)c1
REMARK SMILES IDX 16 1 17 2 18 3 15 4 14 6 32 7 12 8 23 9 8 10 13 11 11 12
REMARK SMILES IDX 22 13 9 14 10 15 24 16 25 17 29 18 26 19 28 20 27 21 30 22
REMARK SMILES IDX 31 23 7 24 6 26 5 27 33 28 4 29 2 30 3 31 1 32 19 33 20 34
REMARK SMILES IDX 21 35
REMARK H PARENT 15 5 7 25 21 36
REMARK Flexibility Score: inf
ROOT
ATOM      1  S   UNL     1     134.675 112.788 129.894  1.00  0.00     0.234 S 
ATOM      2  O   UNL     1     134.412 111.456 130.397  1.00  0.00    -0.207 OA
ATOM      3  O   UNL     1     135.242 113.808 130.749  1.00  0.00    -0.207 OA
ENDROOT
BRANCH   1   4
ATOM      4  N   UNL     1     133.192 113.321 129.268  1.00  0.00    -0.283 N 
ATOM      5  H   UNL     1     132.495 112.585 129.406  1.00  0.00     0.180 HD
BRANCH   4   6
ATOM      6  C   UNL     1     132.772 114.635 129.634  1.00  0.00     0.053 A 
ATOM      7  C   UNL     1     132.047 117.237 130.414  1.00  0.00     0.067 A 
ATOM      8  C   UNL     1     133.206 117.018 129.647  1.00  0.00     0.080 A 
ATOM      9  C   UNL     1     131.253 116.102 130.812  1.00  0.00     0.052 A 
ATOM     10  C   UNL     1     131.807 118.603 130.729  1.00  0.00     0.143 A 
ATOM     11  C   UNL     1     133.552 115.727 129.278  1.00  0.00     0.056 A 
ATOM     12  N   UNL     1     134.021 117.993 129.243  1.00  0.00    -0.236 NA
ATOM     13  C   UNL     1     131.632 114.813 130.403  1.00  0.00     0.053 A 
ATOM     14  N   UNL     1     132.628 119.590 130.320  1.00  0.00    -0.219 NA
ATOM     15  C   UNL     1     133.693 119.236 129.604  1.00  0.00     0.224 A 
BRANCH   9  16
ATOM     16  N   UNL     1     130.098 116.284 131.626  1.00  0.00    -0.371 N 
ATOM     17  C   UNL     1     130.168 115.593 132.941  1.00  0.00     0.117 C 
ATOM     18  C   UNL     1     128.850 116.075 130.851  1.00  0.00     0.117 C 
ATOM     19  C   UNL     1     129.107 114.499 133.092  1.00  0.00     0.028 C 
ATOM     20  C   UNL     1     127.636 116.130 131.784  1.00  0.00     0.028 C 
ATOM     21  C   UNL     1     127.711 115.044 132.844  1.00  0.00    -0.026 C 
ATOM     22  C   UNL     1     126.750 115.142 134.013  1.00  0.00     0.008 C 
ATOM     23  C   UNL     1     126.549 114.079 132.976  1.00  0.00     0.008 C 
ENDBRANCH   9  16
BRANCH  10  24
ATOM     24  N   UNL     1     130.644 118.932 131.465  1.00  0.00    -0.340 N 
ATOM     25  H   UNL     1     129.858 118.371 131.130  1.00  0.00     0.168 HD
BRANCH  24  26
ATOM     26  C   UNL     1     130.426 119.591 132.683  1.00  0.00     0.040 A 
ATOM     27  C   UNL     1     129.276 119.268 133.421  1.00  0.00     0.026 A 
ATOM     28  C   UNL     1     131.269 120.581 133.197  1.00  0.00     0.029 A 
ATOM     29  C   UNL     1     128.993 119.893 134.639  1.00  0.00     0.002 A 
ATOM     30  C   UNL     1     130.990 121.231 134.413  1.00  0.00    -0.049 A 
ATOM     31  C   UNL     1     129.853 120.868 135.137  1.00  0.00     0.003 A 
ATOM     32  C   UNL     1     131.940 122.261 134.949  1.00  0.00     0.044 C 
ENDBRANCH  24  26
ENDBRANCH  10  24
ENDBRANCH   4   6
ENDBRANCH   1   4
BRANCH   1  33
ATOM     33  C   UNL     1     135.653 112.637 128.416  1.00  0.00     0.188 C 
BRANCH  33  34
ATOM     34  C   UNL     1     137.125 112.613 128.769  1.00  0.00     0.174 C 
BRANCH  34  35
ATOM     35  O   UNL     1     137.275 112.144 130.106  1.00  0.00    -0.395 OA
ATOM     36  H   UNL     1     136.381 112.049 130.478  1.00  0.00     0.210 HD
ENDBRANCH  34  35
ENDBRANCH  33  34
ENDBRANCH   1  33
TORSDOF 8
ENDMDL
MODEL 9
REMARK VINA RESULT:     -11.1      0.863      1.223
REMARK SMILES Cc1cccc(Nc2ncnc3cc(NS(=O)(=O)CCO)cc(N4CCC5(CC4)CC5)c23)c1
REMARK SMILES IDX 16 1 17 2 18 3 15 4 14 6 32 7 12 8 23 9 8 10 13 11 11 12
REMARK SMILES IDX 22 13 9 14 10 15 24 16 25 17 29 18 26 19 28 20 27 21 30 22
REMARK SMILES IDX 31 23 7 24 6 26 5 27 33 28 4 29 2 30 3 31 1 32 19 33 20 34
REMARK SMILES IDX 21 35
REMARK H PARENT 15 5 7 25 21 36
REMARK Flexibility Score: inf
ROOT
ATOM      1  S   UNL     1     134.576 113.796 129.537  1.00  0.00     0.234 S 
ATOM      2  O   UNL     1     133.750 113.038 130.454  1.00  0.00    -0.207 OA
ATOM      3  O   UNL     1     135.689 114.586 130.016  1.00  0.00    -0.207 OA
ENDROOT
BRANCH   1   4
ATOM      4  N   UNL     1     133.492 114.785 128.687  1.00  0.00    -0.283 N 
ATOM      5  H   UNL     1     132.847 114.190 128.162  1.00  0.00     0.180 HD
BRANCH   4   6
ATOM      6  C   UNL     1     132.881 115.849 129.417  1.00  0.00     0.053 A 
ATOM      7  C   UNL     1     131.777 117.952 130.921  1.00  0.00     0.067 A 
ATOM      8  C   UNL     1     132.971 118.139 130.201  1.00  0.00     0.080 A 
ATOM      9  C   UNL     1     131.145 116.658 130.893  1.00  0.00     0.052 A 
ATOM     10  C   UNL     1     131.339 119.105 131.630  1.00  0.00     0.143 A 
ATOM     11  C   UNL     1     133.505 117.089 129.471  1.00  0.00     0.056 A 
ATOM     12  N   UNL     1     133.648 119.289 130.176  1.00  0.00    -0.236 NA
ATOM     13  C   UNL     1     131.712 115.626 130.127  1.00  0.00     0.053 A 
ATOM     14  N   UNL     1     132.019 120.267 131.603  1.00  0.00    -0.219 NA
ATOM     15  C   UNL     1     133.138 120.299 130.884  1.00  0.00     0.224 A 
BRANCH   9  16
ATOM     16  N   UNL     1     129.959 116.421 131.646  1.00  0.00    -0.371 N 
ATOM     17  C   UNL     1     130.120 115.415 132.729  1.00  0.00     0.117 C 
ATOM     18  C   UNL     1     128.782 116.238 130.761  1.00  0.00     0.117 C 
ATOM     19  C   UNL     1     129.259 114.167 132.510  1.00  0.00     0.028 C 
ATOM     20  C   UNL     1     127.558 115.839 131.591  1.00  0.00     0.028 C 
ATOM     21  C   UNL     1     127.796 114.529 132.324  1.00  0.00    -0.026 C 
ATOM     22  C   UNL     1     126.808 114.146 133.409  1.00  0.00     0.008 C 
ATOM     23  C   UNL     1     126.815 113.393 132.113  1.00  0.00     0.008 C 
ENDBRANCH   9  16
BRANCH  10  24
ATOM     24  N   UNL     1     130.125 119.030 132.355  1.00  0.00    -0.340 N 
ATOM     25  H   UNL     1     129.482 118.396 131.878  1.00  0.00     0.168 HD
BRANCH  24  26
ATOM     26  C   UNL     1     129.760 119.372 133.665  1.00  0.00     0.040 A 
ATOM     27  C   UNL     1     129.009 120.541 133.865  1.00  0.00     0.026 A 
ATOM     28  C   UNL     1     130.128 118.636 134.795  1.00  0.00     0.029 A 
ATOM     29  C   UNL     1     128.619 120.946 135.144  1.00  0.00     0.002 A 
ATOM     30  C   UNL     1     129.757 119.039 136.091  1.00  0.00    -0.049 A 
ATOM     31  C   UNL     1     128.987 120.192 136.255  1.00  0.00     0.003 A 
ATOM     32  C   UNL     1     130.139 118.202 137.276  1.00  0.00     0.044 C 
ENDBRANCH  24  26
ENDBRANCH  10  24
ENDBRANCH   4   6
ENDBRANCH   1   4
BRANCH   1  33
ATOM     33  C   UNL     1     135.133 112.694 128.256  1.00  0.00     0.188 C 
BRANCH  33  34
ATOM     34  C   UNL     1     134.063 112.550 127.195  1.00  0.00     0.174 C 
BRANCH  34  35
ATOM     35  O   UNL     1     132.875 112.045 127.799  1.00  0.00    -0.395 OA
ATOM     36  H   UNL     1     133.031 111.105 127.998  1.00  0.00     0.210 HD
ENDBRANCH  34  35
ENDBRANCH  33  34
ENDBRANCH   1  33
TORSDOF 8
ENDMDL
