MODEL 1
REMARK VINA RESULT:     -12.7      0.000      0.000
REMARK SMILES CC(C)(C)NS(=O)(=O)c1cccc(NC(=O)c2ncc(NC(C)(C)CO)nc2N2CCC3(CC2)CC3)n1
REMARK SMILES IDX 28 1 17 2 18 3 19 4 20 5 27 6 29 7 30 8 34 9 31 10 33 11
REMARK SMILES IDX 32 12 35 13 36 14 15 15 14 16 16 17 13 19 12 20 37 21 11 22
REMARK SMILES IDX 9 23 10 24 6 25 7 26 8 27 5 28 2 30 1 31 3 32 4 33 21 34
REMARK SMILES IDX 22 36 23 37 24 38 25 39 26 40
REMARK H PARENT 14 18 5 29 21 35 26 41
REMARK Flexibility Score: inf
ROOT
ATOM      1  C   UNL     1     131.161 116.320 131.020  1.00  0.00     0.162 A 
ATOM      2  C   UNL     1     131.862 117.540 130.969  1.00  0.00     0.171 A 
ATOM      3  N   UNL     1     132.967 117.728 130.172  1.00  0.00    -0.243 NA
ATOM      4  C   UNL     1     133.352 116.649 129.454  1.00  0.00     0.158 A 
ATOM      5  C   UNL     1     132.705 115.422 129.514  1.00  0.00     0.147 A 
ATOM      6  N   UNL     1     131.607 115.264 130.277  1.00  0.00    -0.210 NA
ENDROOT
BRANCH   1   7
ATOM      7  N   UNL     1     129.986 116.121 131.766  1.00  0.00    -0.355 N 
ATOM      8  C   UNL     1     128.796 116.130 130.884  1.00  0.00     0.118 C 
ATOM      9  C   UNL     1     130.049 115.012 132.738  1.00  0.00     0.118 C 
ATOM     10  C   UNL     1     127.585 115.502 131.583  1.00  0.00     0.028 C 
ATOM     11  C   UNL     1     129.327 113.757 132.236  1.00  0.00     0.028 C 
ATOM     12  C   UNL     1     127.864 114.054 131.947  1.00  0.00    -0.026 C 
ATOM     13  C   UNL     1     127.044 112.963 131.289  1.00  0.00     0.008 C 
ATOM     14  C   UNL     1     126.801 113.308 132.727  1.00  0.00     0.008 C 
ENDBRANCH   1   7
BRANCH   2  15
ATOM     15  C   UNL     1     131.517 118.756 131.803  1.00  0.00     0.279 C 
ATOM     16  N   UNL     1     130.486 118.499 132.685  1.00  0.00    -0.305 N 
ATOM     17  O   UNL     1     132.088 119.831 131.692  1.00  0.00    -0.267 OA
ATOM     18  H   UNL     1     130.095 117.562 132.648  1.00  0.00     0.171 HD
BRANCH  16  19
ATOM     19  C   UNL     1     129.877 119.348 133.605  1.00  0.00     0.134 A 
ATOM     20  C   UNL     1     129.263 120.550 133.264  1.00  0.00     0.047 A 
ATOM     21  N   UNL     1     129.934 118.900 134.875  1.00  0.00    -0.218 NA
ATOM     22  C   UNL     1     128.680 121.335 134.263  1.00  0.00     0.007 A 
ATOM     23  C   UNL     1     129.335 119.690 135.816  1.00  0.00     0.172 A 
ATOM     24  C   UNL     1     128.716 120.903 135.581  1.00  0.00     0.042 A 
BRANCH  23  25
ATOM     25  S   UNL     1     129.489 119.066 137.485  1.00  0.00     0.258 S 
ATOM     26  O   UNL     1     128.233 119.323 138.154  1.00  0.00    -0.205 OA
ATOM     27  O   UNL     1     130.751 119.534 138.020  1.00  0.00    -0.205 OA
BRANCH  25  28
ATOM     28  N   UNL     1     129.632 117.402 137.215  1.00  0.00    -0.205 NA
ATOM     29  H   UNL     1     130.359 117.221 136.515  1.00  0.00     0.142 HD
BRANCH  28  30
ATOM     30  C   UNL     1     128.457 116.504 137.193  1.00  0.00     0.025 C 
ATOM     31  C   UNL     1     128.146 115.927 138.576  1.00  0.00     0.028 C 
ATOM     32  C   UNL     1     128.819 115.347 136.247  1.00  0.00     0.028 C 
ATOM     33  C   UNL     1     127.244 117.247 136.625  1.00  0.00     0.028 C 
ENDBRANCH  28  30
ENDBRANCH  25  28
ENDBRANCH  23  25
ENDBRANCH  16  19
ENDBRANCH   2  15
BRANCH   5  34
ATOM     34  N   UNL     1     133.086 114.292 128.790  1.00  0.00    -0.362 N 
ATOM     35  H   UNL     1     132.259 113.696 128.900  1.00  0.00     0.162 HD
BRANCH  34  36
ATOM     36  C   UNL     1     134.277 113.518 129.253  1.00  0.00     0.056 C 
ATOM     37  C   UNL     1     133.752 112.526 130.316  1.00  0.00     0.037 C 
ATOM     38  C   UNL     1     135.339 114.412 129.909  1.00  0.00     0.037 C 
BRANCH  36  39
ATOM     39  C   UNL     1     134.888 112.702 128.087  1.00  0.00     0.183 C 
BRANCH  39  40
ATOM     40  O   UNL     1     134.048 112.766 126.932  1.00  0.00    -0.394 OA
ATOM     41  H   UNL     1     134.164 111.909 126.474  1.00  0.00     0.210 HD
ENDBRANCH  39  40
ENDBRANCH  36  39
ENDBRANCH  34  36
ENDBRANCH   5  34
TORSDOF 10
ENDMDL
MODEL 2
REMARK VINA RESULT:     -12.6      0.843      1.036
REMARK SMILES CC(C)(C)NS(=O)(=O)c1cccc(NC(=O)c2ncc(NC(C)(C)CO)nc2N2CCC3(CC2)CC3)n1
REMARK SMILES IDX 28 1 17 2 18 3 19 4 20 5 27 6 29 7 30 8 34 9 31 10 33 11
REMARK SMILES IDX 32 12 35 13 36 14 15 15 14 16 16 17 13 19 12 20 37 21 11 22
REMARK SMILES IDX 9 23 10 24 6 25 7 26 8 27 5 28 2 30 1 31 3 32 4 33 21 34
REMARK SMILES IDX 22 36 23 37 24 38 25 39 26 40
REMARK H PARENT 14 18 5 29 21 35 26 41
REMARK Flexibility Score: inf
ROOT
ATOM      1  C   UNL     1     131.015 116.119 130.932  1.00  0.00     0.162 A 
ATOM      2  C   UNL     1     131.706 117.341 130.823  1.00  0.00     0.171 A 
ATOM      3  N   UNL     1     132.823 117.492 130.036  1.00  0.00    -0.243 NA
ATOM      4  C   UNL     1     133.230 116.378 129.388  1.00  0.00     0.158 A 
ATOM      5  C   UNL     1     132.593 115.150 129.508  1.00  0.00     0.147 A 
ATOM      6  N   UNL     1     131.483 115.026 130.260  1.00  0.00    -0.210 NA
ENDROOT
BRANCH   1   7
ATOM      7  N   UNL     1     129.829 115.952 131.669  1.00  0.00    -0.355 N 
ATOM      8  C   UNL     1     128.656 115.890 130.767  1.00  0.00     0.118 C 
ATOM      9  C   UNL     1     129.887 114.907 132.710  1.00  0.00     0.118 C 
ATOM     10  C   UNL     1     127.438 115.292 131.481  1.00  0.00     0.028 C 
ATOM     11  C   UNL     1     129.189 113.614 132.275  1.00  0.00     0.028 C 
ATOM     12  C   UNL     1     127.728 113.873 131.942  1.00  0.00    -0.026 C 
ATOM     13  C   UNL     1     126.933 112.732 131.339  1.00  0.00     0.008 C 
ATOM     14  C   UNL     1     126.660 113.164 132.748  1.00  0.00     0.008 C 
ENDBRANCH   1   7
BRANCH   2  15
ATOM     15  C   UNL     1     131.336 118.599 131.578  1.00  0.00     0.279 C 
ATOM     16  N   UNL     1     131.173 118.359 132.929  1.00  0.00    -0.305 N 
ATOM     17  O   UNL     1     131.196 119.689 131.042  1.00  0.00    -0.267 OA
ATOM     18  H   UNL     1     131.303 117.397 133.226  1.00  0.00     0.171 HD
BRANCH  16  19
ATOM     19  C   UNL     1     130.826 119.242 133.948  1.00  0.00     0.134 A 
ATOM     20  C   UNL     1     131.091 120.608 133.916  1.00  0.00     0.047 A 
ATOM     21  N   UNL     1     130.204 118.651 134.987  1.00  0.00    -0.218 NA
ATOM     22  C   UNL     1     130.703 121.412 134.992  1.00  0.00     0.007 A 
ATOM     23  C   UNL     1     129.826 119.477 136.008  1.00  0.00     0.172 A 
ATOM     24  C   UNL     1     130.056 120.838 136.076  1.00  0.00     0.042 A 
BRANCH  23  25
ATOM     25  S   UNL     1     129.051 118.624 137.377  1.00  0.00     0.258 S 
ATOM     26  O   UNL     1     128.370 119.624 138.170  1.00  0.00    -0.205 OA
ATOM     27  O   UNL     1     130.031 117.727 137.954  1.00  0.00    -0.205 OA
BRANCH  25  28
ATOM     28  N   UNL     1     127.896 117.680 136.580  1.00  0.00    -0.205 NA
ATOM     29  H   UNL     1     127.019 118.204 136.487  1.00  0.00     0.142 HD
BRANCH  28  30
ATOM     30  C   UNL     1     127.774 116.224 136.810  1.00  0.00     0.025 C 
ATOM     31  C   UNL     1     128.997 115.456 136.301  1.00  0.00     0.028 C 
ATOM     32  C   UNL     1     126.539 115.766 136.016  1.00  0.00     0.028 C 
ATOM     33  C   UNL     1     127.535 115.950 138.298  1.00  0.00     0.028 C 
ENDBRANCH  28  30
ENDBRANCH  25  28
ENDBRANCH  23  25
ENDBRANCH  16  19
ENDBRANCH   2  15
BRANCH   5  34
ATOM     34  N   UNL     1     132.997 113.984 128.858  1.00  0.00    -0.362 N 
ATOM     35  H   UNL     1     132.260 113.330 129.145  1.00  0.00     0.162 HD
BRANCH  34  36
ATOM     36  C   UNL     1     134.315 113.384 129.225  1.00  0.00     0.056 C 
ATOM     37  C   UNL     1     134.017 112.351 130.337  1.00  0.00     0.037 C 
ATOM     38  C   UNL     1     135.299 114.423 129.782  1.00  0.00     0.037 C 
BRANCH  36  39
ATOM     39  C   UNL     1     134.931 112.633 128.018  1.00  0.00     0.183 C 
BRANCH  39  40
ATOM     40  O   UNL     1     134.110 112.783 126.858  1.00  0.00    -0.394 OA
ATOM     41  H   UNL     1     133.272 112.322 127.066  1.00  0.00     0.210 HD
ENDBRANCH  39  40
ENDBRANCH  36  39
ENDBRANCH  34  36
ENDBRANCH   5  34
TORSDOF 10
ENDMDL
MODEL 3
REMARK VINA RESULT:     -12.4      1.154      1.469
REMARK SMILES CC(C)(C)NS(=O)(=O)c1cccc(NC(=O)c2ncc(NC(C)(C)CO)nc2N2CCC3(CC2)CC3)n1
REMARK SMILES IDX 28 1 17 2 18 3 19 4 20 5 27 6 29 7 30 8 34 9 31 10 33 11
REMARK SMILES IDX 32 12 35 13 36 14 15 15 14 16 16 17 13 19 12 20 37 21 11 22
REMARK SMILES IDX 9 23 10 24 6 25 7 26 8 27 5 28 2 30 1 31 3 32 4 33 21 34
REMARK SMILES IDX 22 36 23 37 24 38 25 39 26 40
REMARK H PARENT 14 18 5 29 21 35 26 41
REMARK Flexibility Score: inf
ROOT
ATOM      1  C   UNL     1     131.201 116.169 130.834  1.00  0.00     0.162 A 
ATOM      2  C   UNL     1     131.854 117.404 130.655  1.00  0.00     0.171 A 
ATOM      3  N   UNL     1     132.952 117.551 129.841  1.00  0.00    -0.243 NA
ATOM      4  C   UNL     1     133.381 116.419 129.238  1.00  0.00     0.158 A 
ATOM      5  C   UNL     1     132.783 115.181 129.428  1.00  0.00     0.147 A 
ATOM      6  N   UNL     1     131.690 115.060 130.205  1.00  0.00    -0.210 NA
ENDROOT
BRANCH   1   7
ATOM      7  N   UNL     1     130.034 116.004 131.600  1.00  0.00    -0.355 N 
ATOM      8  C   UNL     1     128.833 116.018 130.734  1.00  0.00     0.118 C 
ATOM      9  C   UNL     1     130.092 114.910 132.590  1.00  0.00     0.118 C 
ATOM     10  C   UNL     1     127.620 115.423 131.459  1.00  0.00     0.028 C 
ATOM     11  C   UNL     1     129.342 113.660 132.120  1.00  0.00     0.028 C 
ATOM     12  C   UNL     1     127.880 113.977 131.845  1.00  0.00    -0.026 C 
ATOM     13  C   UNL     1     127.032 112.889 131.217  1.00  0.00     0.008 C 
ATOM     14  C   UNL     1     126.815 113.262 132.652  1.00  0.00     0.008 C 
ENDBRANCH   1   7
BRANCH   2  15
ATOM     15  C   UNL     1     131.460 118.686 131.357  1.00  0.00     0.279 C 
ATOM     16  N   UNL     1     131.410 118.526 132.729  1.00  0.00    -0.305 N 
ATOM     17  O   UNL     1     131.213 119.728 130.767  1.00  0.00    -0.267 OA
ATOM     18  H   UNL     1     131.621 117.595 133.073  1.00  0.00     0.171 HD
BRANCH  16  19
ATOM     19  C   UNL     1     131.082 119.452 133.715  1.00  0.00     0.134 A 
ATOM     20  C   UNL     1     131.377 120.811 133.635  1.00  0.00     0.047 A 
ATOM     21  N   UNL     1     130.445 118.912 134.773  1.00  0.00    -0.218 NA
ATOM     22  C   UNL     1     131.006 121.660 134.681  1.00  0.00     0.007 A 
ATOM     23  C   UNL     1     130.084 119.783 135.763  1.00  0.00     0.172 A 
ATOM     24  C   UNL     1     130.344 121.140 135.783  1.00  0.00     0.042 A 
BRANCH  23  25
ATOM     25  S   UNL     1     129.288 118.997 137.159  1.00  0.00     0.258 S 
ATOM     26  O   UNL     1     128.535 120.020 137.851  1.00  0.00    -0.205 OA
ATOM     27  O   UNL     1     130.278 118.186 137.838  1.00  0.00    -0.205 OA
BRANCH  25  28
ATOM     28  N   UNL     1     128.206 117.949 136.390  1.00  0.00    -0.205 NA
ATOM     29  H   UNL     1     127.392 118.474 136.050  1.00  0.00     0.142 HD
BRANCH  28  30
ATOM     30  C   UNL     1     127.948 116.580 136.885  1.00  0.00     0.025 C 
ATOM     31  C   UNL     1     129.067 115.608 136.499  1.00  0.00     0.028 C 
ATOM     32  C   UNL     1     126.643 116.120 136.215  1.00  0.00     0.028 C 
ATOM     33  C   UNL     1     127.743 116.604 138.403  1.00  0.00     0.028 C 
ENDBRANCH  28  30
ENDBRANCH  25  28
ENDBRANCH  23  25
ENDBRANCH  16  19
ENDBRANCH   2  15
BRANCH   5  34
ATOM     34  N   UNL     1     133.210 113.997 128.825  1.00  0.00    -0.362 N 
ATOM     35  H   UNL     1     132.423 113.373 129.032  1.00  0.00     0.162 HD
BRANCH  34  36
ATOM     36  C   UNL     1     134.458 113.350 129.332  1.00  0.00     0.056 C 
ATOM     37  C   UNL     1     135.073 112.609 128.122  1.00  0.00     0.037 C 
ATOM     38  C   UNL     1     134.178 112.321 130.437  1.00  0.00     0.037 C 
BRANCH  36  39
ATOM     39  C   UNL     1     135.471 114.416 129.815  1.00  0.00     0.183 C 
BRANCH  39  40
ATOM     40  O   UNL     1     136.388 113.852 130.755  1.00  0.00    -0.394 OA
ATOM     41  H   UNL     1     135.856 113.646 131.551  1.00  0.00     0.210 HD
ENDBRANCH  39  40
ENDBRANCH  36  39
ENDBRANCH  34  36
ENDBRANCH   5  34
TORSDOF 10
ENDMDL
MODEL 4
REMARK VINA RESULT:     -12.3      0.737      1.027
REMARK SMILES CC(C)(C)NS(=O)(=O)c1cccc(NC(=O)c2ncc(NC(C)(C)CO)nc2N2CCC3(CC2)CC3)n1
REMARK SMILES IDX 28 1 17 2 18 3 19 4 20 5 27 6 29 7 30 8 34 9 31 10 33 11
REMARK SMILES IDX 32 12 35 13 36 14 15 15 14 16 16 17 13 19 12 20 37 21 11 22
REMARK SMILES IDX 9 23 10 24 6 25 7 26 8 27 5 28 2 30 1 31 3 32 4 33 21 34
REMARK SMILES IDX 22 36 23 37 24 38 25 39 26 40
REMARK H PARENT 14 18 5 29 21 35 26 41
REMARK Flexibility Score: inf
ROOT
ATOM      1  C   UNL     1     131.228 116.405 130.958  1.00  0.00     0.162 A 
ATOM      2  C   UNL     1     131.892 117.645 130.887  1.00  0.00     0.171 A 
ATOM      3  N   UNL     1     132.993 117.852 130.089  1.00  0.00    -0.243 NA
ATOM      4  C   UNL     1     133.413 116.773 129.391  1.00  0.00     0.158 A 
ATOM      5  C   UNL     1     132.803 115.528 129.472  1.00  0.00     0.147 A 
ATOM      6  N   UNL     1     131.708 115.350 130.235  1.00  0.00    -0.210 NA
ENDROOT
BRANCH   1   7
ATOM      7  N   UNL     1     130.058 116.184 131.705  1.00  0.00    -0.355 N 
ATOM      8  C   UNL     1     128.864 116.204 130.829  1.00  0.00     0.118 C 
ATOM      9  C   UNL     1     130.133 115.055 132.654  1.00  0.00     0.118 C 
ATOM     10  C   UNL     1     127.660 115.554 131.520  1.00  0.00     0.028 C 
ATOM     11  C   UNL     1     129.416 113.806 132.129  1.00  0.00     0.028 C 
ATOM     12  C   UNL     1     127.950 114.100 131.853  1.00  0.00    -0.026 C 
ATOM     13  C   UNL     1     127.133 113.018 131.176  1.00  0.00     0.008 C 
ATOM     14  C   UNL     1     126.895 113.332 132.622  1.00  0.00     0.008 C 
ENDBRANCH   1   7
BRANCH   2  15
ATOM     15  C   UNL     1     131.508 118.864 131.697  1.00  0.00     0.279 C 
ATOM     16  N   UNL     1     130.566 118.564 132.662  1.00  0.00    -0.305 N 
ATOM     17  O   UNL     1     131.980 119.976 131.505  1.00  0.00    -0.267 OA
ATOM     18  H   UNL     1     130.252 117.599 132.689  1.00  0.00     0.171 HD
BRANCH  16  19
ATOM     19  C   UNL     1     129.955 119.401 133.592  1.00  0.00     0.134 A 
ATOM     20  C   UNL     1     129.367 120.622 133.270  1.00  0.00     0.047 A 
ATOM     21  N   UNL     1     129.983 118.923 134.852  1.00  0.00    -0.218 NA
ATOM     22  C   UNL     1     128.781 121.392 134.278  1.00  0.00     0.007 A 
ATOM     23  C   UNL     1     129.381 119.700 135.801  1.00  0.00     0.172 A 
ATOM     24  C   UNL     1     128.786 120.928 135.585  1.00  0.00     0.042 A 
BRANCH  23  25
ATOM     25  S   UNL     1     129.496 119.033 137.457  1.00  0.00     0.258 S 
ATOM     26  O   UNL     1     128.222 119.267 138.100  1.00  0.00    -0.205 OA
ATOM     27  O   UNL     1     130.741 119.494 138.036  1.00  0.00    -0.205 OA
BRANCH  25  28
ATOM     28  N   UNL     1     129.655 117.378 137.148  1.00  0.00    -0.205 NA
ATOM     29  H   UNL     1     130.365 117.223 136.425  1.00  0.00     0.142 HD
BRANCH  28  30
ATOM     30  C   UNL     1     128.493 116.463 137.138  1.00  0.00     0.025 C 
ATOM     31  C   UNL     1     128.169 115.927 138.535  1.00  0.00     0.028 C 
ATOM     32  C   UNL     1     128.884 115.282 136.235  1.00  0.00     0.028 C 
ATOM     33  C   UNL     1     127.278 117.171 136.529  1.00  0.00     0.028 C 
ENDBRANCH  28  30
ENDBRANCH  25  28
ENDBRANCH  23  25
ENDBRANCH  16  19
ENDBRANCH   2  15
BRANCH   5  34
ATOM     34  N   UNL     1     133.221 114.397 128.769  1.00  0.00    -0.362 N 
ATOM     35  H   UNL     1     132.355 113.848 128.743  1.00  0.00     0.162 HD
BRANCH  34  36
ATOM     36  C   UNL     1     134.291 113.543 129.366  1.00  0.00     0.056 C 
ATOM     37  C   UNL     1     134.897 112.740 128.192  1.00  0.00     0.037 C 
ATOM     38  C   UNL     1     133.742 112.549 130.399  1.00  0.00     0.037 C 
BRANCH  36  39
ATOM     39  C   UNL     1     135.410 114.418 129.984  1.00  0.00     0.183 C 
BRANCH  39  40
ATOM     40  O   UNL     1     136.428 113.600 130.564  1.00  0.00    -0.394 OA
ATOM     41  H   UNL     1     137.220 113.726 130.004  1.00  0.00     0.210 HD
ENDBRANCH  39  40
ENDBRANCH  36  39
ENDBRANCH  34  36
ENDBRANCH   5  34
TORSDOF 10
ENDMDL
MODEL 5
REMARK VINA RESULT:     -12.1      0.688      1.215
REMARK SMILES CC(C)(C)NS(=O)(=O)c1cccc(NC(=O)c2ncc(NC(C)(C)CO)nc2N2CCC3(CC2)CC3)n1
REMARK SMILES IDX 28 1 17 2 18 3 19 4 20 5 27 6 29 7 30 8 34 9 31 10 33 11
REMARK SMILES IDX 32 12 35 13 36 14 15 15 14 16 16 17 13 19 12 20 37 21 11 22
REMARK SMILES IDX 9 23 10 24 6 25 7 26 8 27 5 28 2 30 1 31 3 32 4 33 21 34
REMARK SMILES IDX 22 36 23 37 24 38 25 39 26 40
REMARK H PARENT 14 18 5 29 21 35 26 41
REMARK Flexibility Score: inf
ROOT
ATOM      1  C   UNL     1     131.250 116.467 130.921  1.00  0.00     0.162 A 
ATOM      2  C   UNL     1     131.927 117.701 130.896  1.00  0.00     0.171 A 
ATOM      3  N   UNL     1     133.022 117.930 130.097  1.00  0.00    -0.243 NA
ATOM      4  C   UNL     1     133.424 116.877 129.350  1.00  0.00     0.158 A 
ATOM      5  C   UNL     1     132.801 115.636 129.384  1.00  0.00     0.147 A 
ATOM      6  N   UNL     1     131.711 115.438 130.151  1.00  0.00    -0.210 NA
ENDROOT
BRANCH   1   7
ATOM      7  N   UNL     1     130.085 116.227 131.670  1.00  0.00    -0.355 N 
ATOM      8  C   UNL     1     128.893 116.202 130.792  1.00  0.00     0.118 C 
ATOM      9  C   UNL     1     130.186 115.116 132.637  1.00  0.00     0.118 C 
ATOM     10  C   UNL     1     127.704 115.533 131.491  1.00  0.00     0.028 C 
ATOM     11  C   UNL     1     129.503 113.841 132.131  1.00  0.00     0.028 C 
ATOM     12  C   UNL     1     128.031 114.093 131.848  1.00  0.00    -0.026 C 
ATOM     13  C   UNL     1     127.243 112.979 131.186  1.00  0.00     0.008 C 
ATOM     14  C   UNL     1     126.994 113.309 132.627  1.00  0.00     0.008 C 
ENDBRANCH   1   7
BRANCH   2  15
ATOM     15  C   UNL     1     131.565 118.890 131.761  1.00  0.00     0.279 C 
ATOM     16  N   UNL     1     130.534 118.596 132.633  1.00  0.00    -0.305 N 
ATOM     17  O   UNL     1     132.123 119.975 131.682  1.00  0.00    -0.267 OA
ATOM     18  H   UNL     1     130.155 117.656 132.568  1.00  0.00     0.171 HD
BRANCH  16  19
ATOM     19  C   UNL     1     129.911 119.412 133.573  1.00  0.00     0.134 A 
ATOM     20  C   UNL     1     129.291 120.620 133.264  1.00  0.00     0.047 A 
ATOM     21  N   UNL     1     129.962 118.926 134.829  1.00  0.00    -0.218 NA
ATOM     22  C   UNL     1     128.695 121.370 134.282  1.00  0.00     0.007 A 
ATOM     23  C   UNL     1     129.349 119.682 135.789  1.00  0.00     0.172 A 
ATOM     24  C   UNL     1     128.723 120.897 135.586  1.00  0.00     0.042 A 
BRANCH  23  25
ATOM     25  S   UNL     1     129.495 119.008 137.439  1.00  0.00     0.258 S 
ATOM     26  O   UNL     1     128.231 119.235 138.105  1.00  0.00    -0.205 OA
ATOM     27  O   UNL     1     130.748 119.471 138.000  1.00  0.00    -0.205 OA
BRANCH  25  28
ATOM     28  N   UNL     1     129.655 117.355 137.120  1.00  0.00    -0.205 NA
ATOM     29  H   UNL     1     130.399 117.201 136.431  1.00  0.00     0.142 HD
BRANCH  28  30
ATOM     30  C   UNL     1     128.486 116.452 137.040  1.00  0.00     0.025 C 
ATOM     31  C   UNL     1     127.224 117.184 136.577  1.00  0.00     0.028 C 
ATOM     32  C   UNL     1     128.254 115.924 138.466  1.00  0.00     0.028 C 
ATOM     33  C   UNL     1     128.803 115.269 136.119  1.00  0.00     0.028 C 
ENDBRANCH  28  30
ENDBRANCH  25  28
ENDBRANCH  23  25
ENDBRANCH  16  19
ENDBRANCH   2  15
BRANCH   5  34
ATOM     34  N   UNL     1     133.199 114.532 128.631  1.00  0.00    -0.362 N 
ATOM     35  H   UNL     1     132.301 114.059 128.480  1.00  0.00     0.162 HD
BRANCH  34  36
ATOM     36  C   UNL     1     134.140 113.550 129.249  1.00  0.00     0.056 C 
ATOM     37  C   UNL     1     135.194 114.390 130.006  1.00  0.00     0.037 C 
ATOM     38  C   UNL     1     134.866 112.693 128.202  1.00  0.00     0.037 C 
BRANCH  36  39
ATOM     39  C   UNL     1     133.402 112.655 130.276  1.00  0.00     0.183 C 
BRANCH  39  40
ATOM     40  O   UNL     1     134.290 111.679 130.824  1.00  0.00    -0.394 OA
ATOM     41  H   UNL     1     134.920 112.178 131.382  1.00  0.00     0.210 HD
ENDBRANCH  39  40
ENDBRANCH  36  39
ENDBRANCH  34  36
ENDBRANCH   5  34
TORSDOF 10
ENDMDL
MODEL 6
REMARK VINA RESULT:     -11.9      1.165      1.370
REMARK SMILES CC(C)(C)NS(=O)(=O)c1cccc(NC(=O)c2ncc(NC(C)(C)CO)nc2N2CCC3(CC2)CC3)n1
REMARK SMILES IDX 28 1 17 2 18 3 19 4 20 5 27 6 29 7 30 8 34 9 31 10 33 11
REMARK SMILES IDX 32 12 35 13 36 14 15 15 14 16 16 17 13 19 12 20 37 21 11 22
REMARK SMILES IDX 9 23 10 24 6 25 7 26 8 27 5 28 2 30 1 31 3 32 4 33 21 34
REMARK SMILES IDX 22 36 23 37 24 38 25 39 26 40
REMARK H PARENT 14 18 5 29 21 35 26 41
REMARK Flexibility Score: inf
ROOT
ATOM      1  C   UNL     1     131.319 116.254 130.744  1.00  0.00     0.162 A 
ATOM      2  C   UNL     1     131.926 117.511 130.555  1.00  0.00     0.171 A 
ATOM      3  N   UNL     1     132.991 117.699 129.707  1.00  0.00    -0.243 NA
ATOM      4  C   UNL     1     133.436 116.588 129.079  1.00  0.00     0.158 A 
ATOM      5  C   UNL     1     132.884 115.329 129.276  1.00  0.00     0.147 A 
ATOM      6  N   UNL     1     131.822 115.166 130.088  1.00  0.00    -0.210 NA
ENDROOT
BRANCH   1   7
ATOM      7  N   UNL     1     130.184 116.044 131.546  1.00  0.00    -0.355 N 
ATOM      8  C   UNL     1     128.948 116.106 130.732  1.00  0.00     0.118 C 
ATOM      9  C   UNL     1     130.281 114.897 132.470  1.00  0.00     0.118 C 
ATOM     10  C   UNL     1     127.765 115.469 131.471  1.00  0.00     0.028 C 
ATOM     11  C   UNL     1     129.511 113.674 131.961  1.00  0.00     0.028 C 
ATOM     12  C   UNL     1     128.040 114.004 131.765  1.00  0.00    -0.026 C 
ATOM     13  C   UNL     1     127.166 112.952 131.111  1.00  0.00     0.008 C 
ATOM     14  C   UNL     1     127.008 113.244 132.573  1.00  0.00     0.008 C 
ENDBRANCH   1   7
BRANCH   2  15
ATOM     15  C   UNL     1     131.515 118.773 131.283  1.00  0.00     0.279 C 
ATOM     16  N   UNL     1     131.476 118.587 132.652  1.00  0.00    -0.305 N 
ATOM     17  O   UNL     1     131.248 119.821 130.713  1.00  0.00    -0.267 OA
ATOM     18  H   UNL     1     131.704 117.653 132.978  1.00  0.00     0.171 HD
BRANCH  16  19
ATOM     19  C   UNL     1     131.138 119.490 133.657  1.00  0.00     0.134 A 
ATOM     20  C   UNL     1     131.417 120.853 133.603  1.00  0.00     0.047 A 
ATOM     21  N   UNL     1     130.509 118.922 134.705  1.00  0.00    -0.218 NA
ATOM     22  C   UNL     1     131.038 121.677 134.666  1.00  0.00     0.007 A 
ATOM     23  C   UNL     1     130.140 119.768 135.713  1.00  0.00     0.172 A 
ATOM     24  C   UNL     1     130.384 121.127 135.759  1.00  0.00     0.042 A 
BRANCH  23  25
ATOM     25  S   UNL     1     129.356 118.945 137.094  1.00  0.00     0.258 S 
ATOM     26  O   UNL     1     128.592 119.946 137.807  1.00  0.00    -0.205 OA
ATOM     27  O   UNL     1     130.357 118.133 137.754  1.00  0.00    -0.205 OA
BRANCH  25  28
ATOM     28  N   UNL     1     128.284 117.901 136.306  1.00  0.00    -0.205 NA
ATOM     29  H   UNL     1     127.521 118.437 135.880  1.00  0.00     0.142 HD
BRANCH  28  30
ATOM     30  C   UNL     1     127.932 116.574 136.854  1.00  0.00     0.025 C 
ATOM     31  C   UNL     1     127.825 116.591 138.382  1.00  0.00     0.028 C 
ATOM     32  C   UNL     1     129.073 115.625 136.451  1.00  0.00     0.028 C 
ATOM     33  C   UNL     1     126.628 116.077 136.221  1.00  0.00     0.028 C 
ENDBRANCH  28  30
ENDBRANCH  25  28
ENDBRANCH  23  25
ENDBRANCH  16  19
ENDBRANCH   2  15
BRANCH   5  34
ATOM     34  N   UNL     1     133.328 114.165 128.648  1.00  0.00    -0.362 N 
ATOM     35  H   UNL     1     132.521 113.546 128.782  1.00  0.00     0.162 HD
BRANCH  34  36
ATOM     36  C   UNL     1     134.534 113.475 129.197  1.00  0.00     0.056 C 
ATOM     37  C   UNL     1     135.451 114.594 129.744  1.00  0.00     0.037 C 
ATOM     38  C   UNL     1     135.307 112.700 128.121  1.00  0.00     0.037 C 
BRANCH  36  39
ATOM     39  C   UNL     1     134.147 112.546 130.374  1.00  0.00     0.183 C 
BRANCH  39  40
ATOM     40  O   UNL     1     135.255 112.362 131.257  1.00  0.00    -0.394 OA
ATOM     41  H   UNL     1     135.796 111.651 130.858  1.00  0.00     0.210 HD
ENDBRANCH  39  40
ENDBRANCH  36  39
ENDBRANCH  34  36
ENDBRANCH   5  34
TORSDOF 10
ENDMDL
MODEL 7
REMARK VINA RESULT:     -11.6      1.302      1.651
REMARK SMILES CC(C)(C)NS(=O)(=O)c1cccc(NC(=O)c2ncc(NC(C)(C)CO)nc2N2CCC3(CC2)CC3)n1
REMARK SMILES IDX 28 1 17 2 18 3 19 4 20 5 27 6 29 7 30 8 34 9 31 10 33 11
REMARK SMILES IDX 32 12 35 13 36 14 15 15 14 16 16 17 13 19 12 20 37 21 11 22
REMARK SMILES IDX 9 23 10 24 6 25 7 26 8 27 5 28 2 30 1 31 3 32 4 33 21 34
REMARK SMILES IDX 22 36 23 37 24 38 25 39 26 40
REMARK H PARENT 14 18 5 29 21 35 26 41
REMARK Flexibility Score: inf
ROOT
ATOM      1  C   UNL     1     131.246 116.119 130.855  1.00  0.00     0.162 A 
ATOM      2  C   UNL     1     131.933 117.325 130.621  1.00  0.00     0.171 A 
ATOM      3  N   UNL     1     133.074 117.392 129.856  1.00  0.00    -0.243 NA
ATOM      4  C   UNL     1     133.508 116.212 129.360  1.00  0.00     0.158 A 
ATOM      5  C   UNL     1     132.875 115.002 129.607  1.00  0.00     0.147 A 
ATOM      6  N   UNL     1     131.742 114.958 130.334  1.00  0.00    -0.210 NA
ENDROOT
BRANCH   1   7
ATOM      7  N   UNL     1     130.038 116.030 131.569  1.00  0.00    -0.355 N 
ATOM      8  C   UNL     1     128.886 115.953 130.643  1.00  0.00     0.118 C 
ATOM      9  C   UNL     1     130.039 115.044 132.668  1.00  0.00     0.118 C 
ATOM     10  C   UNL     1     127.634 115.433 131.358  1.00  0.00     0.028 C 
ATOM     11  C   UNL     1     129.311 113.750 132.289  1.00  0.00     0.028 C 
ATOM     12  C   UNL     1     127.868 114.034 131.905  1.00  0.00    -0.026 C 
ATOM     13  C   UNL     1     127.051 112.886 131.347  1.00  0.00     0.008 C 
ATOM     14  C   UNL     1     126.758 113.404 132.722  1.00  0.00     0.008 C 
ENDBRANCH   1   7
BRANCH   2  15
ATOM     15  C   UNL     1     131.532 118.662 131.208  1.00  0.00     0.279 C 
ATOM     16  N   UNL     1     131.610 118.663 132.587  1.00  0.00    -0.305 N 
ATOM     17  O   UNL     1     131.177 119.615 130.529  1.00  0.00    -0.267 OA
ATOM     18  H   UNL     1     131.901 117.788 133.014  1.00  0.00     0.171 HD
BRANCH  16  19
ATOM     19  C   UNL     1     131.318 119.682 133.489  1.00  0.00     0.134 A 
ATOM     20  C   UNL     1     131.662 121.017 133.290  1.00  0.00     0.047 A 
ATOM     21  N   UNL     1     130.665 119.260 134.590  1.00  0.00    -0.218 NA
ATOM     22  C   UNL     1     131.326 121.967 134.258  1.00  0.00     0.007 A 
ATOM     23  C   UNL     1     130.340 120.226 135.500  1.00  0.00     0.172 A 
ATOM     24  C   UNL     1     130.649 121.570 135.401  1.00  0.00     0.042 A 
BRANCH  23  25
ATOM     25  S   UNL     1     129.520 119.595 136.959  1.00  0.00     0.258 S 
ATOM     26  O   UNL     1     128.439 120.506 137.268  1.00  0.00    -0.205 OA
ATOM     27  O   UNL     1     130.539 119.260 137.932  1.00  0.00    -0.205 OA
BRANCH  25  28
ATOM     28  N   UNL     1     128.864 118.146 136.382  1.00  0.00    -0.205 NA
ATOM     29  H   UNL     1     127.991 118.334 135.877  1.00  0.00     0.142 HD
BRANCH  28  30
ATOM     30  C   UNL     1     128.918 116.892 137.163  1.00  0.00     0.025 C 
ATOM     31  C   UNL     1     128.533 115.672 136.320  1.00  0.00     0.028 C 
ATOM     32  C   UNL     1     127.894 117.048 138.299  1.00  0.00     0.028 C 
ATOM     33  C   UNL     1     130.312 116.716 137.773  1.00  0.00     0.028 C 
ENDBRANCH  28  30
ENDBRANCH  25  28
ENDBRANCH  23  25
ENDBRANCH  16  19
ENDBRANCH   2  15
BRANCH   5  34
ATOM     34  N   UNL     1     133.306 113.770 129.115  1.00  0.00    -0.362 N 
ATOM     35  H   UNL     1     132.698 113.125 129.631  1.00  0.00     0.162 HD
BRANCH  34  36
ATOM     36  C   UNL     1     134.723 113.362 129.358  1.00  0.00     0.056 C 
ATOM     37  C   UNL     1     135.500 114.670 129.634  1.00  0.00     0.037 C 
ATOM     38  C   UNL     1     135.353 112.674 128.139  1.00  0.00     0.037 C 
BRANCH  36  39
ATOM     39  C   UNL     1     134.827 112.461 130.614  1.00  0.00     0.183 C 
BRANCH  39  40
ATOM     40  O   UNL     1     136.082 112.652 131.270  1.00  0.00    -0.394 OA
ATOM     41  H   UNL     1     136.176 113.620 131.381  1.00  0.00     0.210 HD
ENDBRANCH  39  40
ENDBRANCH  36  39
ENDBRANCH  34  36
ENDBRANCH   5  34
TORSDOF 10
ENDMDL
MODEL 8
REMARK VINA RESULT:     -11.5      2.414      7.944
REMARK SMILES CC(C)(C)NS(=O)(=O)c1cccc(NC(=O)c2ncc(NC(C)(C)CO)nc2N2CCC3(CC2)CC3)n1
REMARK SMILES IDX 28 1 17 2 18 3 19 4 20 5 27 6 29 7 30 8 34 9 31 10 33 11
REMARK SMILES IDX 32 12 35 13 36 14 15 15 14 16 16 17 13 19 12 20 37 21 11 22
REMARK SMILES IDX 9 23 10 24 6 25 7 26 8 27 5 28 2 30 1 31 3 32 4 33 21 34
REMARK SMILES IDX 22 36 23 37 24 38 25 39 26 40
REMARK H PARENT 14 18 5 29 21 35 26 41
REMARK Flexibility Score: inf
ROOT
ATOM      1  C   UNL     1     129.035 117.444 134.292  1.00  0.00     0.162 A 
ATOM      2  C   UNL     1     129.834 118.603 134.277  1.00  0.00     0.171 A 
ATOM      3  N   UNL     1     129.807 119.535 135.287  1.00  0.00    -0.243 NA
ATOM      4  C   UNL     1     128.940 119.276 136.291  1.00  0.00     0.158 A 
ATOM      5  C   UNL     1     128.111 118.163 136.314  1.00  0.00     0.147 A 
ATOM      6  N   UNL     1     128.171 117.244 135.331  1.00  0.00    -0.210 NA
ENDROOT
BRANCH   1   7
ATOM      7  N   UNL     1     129.095 116.438 133.312  1.00  0.00    -0.355 N 
ATOM      8  C   UNL     1     129.195 115.100 133.939  1.00  0.00     0.118 C 
ATOM      9  C   UNL     1     128.093 116.561 132.234  1.00  0.00     0.118 C 
ATOM     10  C   UNL     1     128.833 113.992 132.943  1.00  0.00     0.028 C 
ATOM     11  C   UNL     1     126.918 115.595 132.418  1.00  0.00     0.028 C 
ATOM     12  C   UNL     1     127.404 114.154 132.454  1.00  0.00    -0.026 C 
ATOM     13  C   UNL     1     126.390 113.080 132.792  1.00  0.00     0.008 C 
ATOM     14  C   UNL     1     126.912 113.193 131.391  1.00  0.00     0.008 C 
ENDBRANCH   1   7
BRANCH   2  15
ATOM     15  C   UNL     1     130.769 118.978 133.147  1.00  0.00     0.279 C 
ATOM     16  N   UNL     1     130.981 117.921 132.282  1.00  0.00    -0.305 N 
ATOM     17  O   UNL     1     131.274 120.086 133.031  1.00  0.00    -0.267 OA
ATOM     18  H   UNL     1     130.509 117.054 132.520  1.00  0.00     0.171 HD
BRANCH  16  19
ATOM     19  C   UNL     1     131.774 117.859 131.140  1.00  0.00     0.134 A 
ATOM     20  C   UNL     1     132.246 118.978 130.460  1.00  0.00     0.047 A 
ATOM     21  N   UNL     1     132.050 116.601 130.741  1.00  0.00    -0.218 NA
ATOM     22  C   UNL     1     133.036 118.810 129.319  1.00  0.00     0.007 A 
ATOM     23  C   UNL     1     132.841 116.484 129.633  1.00  0.00     0.172 A 
ATOM     24  C   UNL     1     133.344 117.530 128.883  1.00  0.00     0.042 A 
BRANCH  23  25
ATOM     25  S   UNL     1     133.128 114.792 129.127  1.00  0.00     0.258 S 
ATOM     26  O   UNL     1     133.221 114.790 127.684  1.00  0.00    -0.205 OA
ATOM     27  O   UNL     1     132.184 113.951 129.834  1.00  0.00    -0.205 OA
BRANCH  25  28
ATOM     28  N   UNL     1     134.663 114.499 129.773  1.00  0.00    -0.205 NA
ATOM     29  H   UNL     1     135.306 115.251 129.505  1.00  0.00     0.142 HD
BRANCH  28  30
ATOM     30  C   UNL     1     135.236 113.138 129.854  1.00  0.00     0.025 C 
ATOM     31  C   UNL     1     134.232 112.121 130.403  1.00  0.00     0.028 C 
ATOM     32  C   UNL     1     136.425 113.230 130.825  1.00  0.00     0.028 C 
ATOM     33  C   UNL     1     135.753 112.708 128.477  1.00  0.00     0.028 C 
ENDBRANCH  28  30
ENDBRANCH  25  28
ENDBRANCH  23  25
ENDBRANCH  16  19
ENDBRANCH   2  15
BRANCH   5  34
ATOM     34  N   UNL     1     127.202 117.875 137.333  1.00  0.00    -0.362 N 
ATOM     35  H   UNL     1     127.007 118.814 137.697  1.00  0.00     0.162 HD
BRANCH  34  36
ATOM     36  C   UNL     1     127.657 117.024 138.473  1.00  0.00     0.056 C 
ATOM     37  C   UNL     1     126.464 116.105 138.819  1.00  0.00     0.037 C 
ATOM     38  C   UNL     1     128.009 117.850 139.719  1.00  0.00     0.037 C 
BRANCH  36  39
ATOM     39  C   UNL     1     128.851 116.132 138.049  1.00  0.00     0.183 C 
BRANCH  39  40
ATOM     40  O   UNL     1     128.389 114.949 137.394  1.00  0.00    -0.394 OA
ATOM     41  H   UNL     1     127.868 115.260 136.625  1.00  0.00     0.210 HD
ENDBRANCH  39  40
ENDBRANCH  36  39
ENDBRANCH  34  36
ENDBRANCH   5  34
TORSDOF 10
ENDMDL
MODEL 9
REMARK VINA RESULT:     -11.5      2.507      7.635
REMARK SMILES CC(C)(C)NS(=O)(=O)c1cccc(NC(=O)c2ncc(NC(C)(C)CO)nc2N2CCC3(CC2)CC3)n1
REMARK SMILES IDX 28 1 17 2 18 3 19 4 20 5 27 6 29 7 30 8 34 9 31 10 33 11
REMARK SMILES IDX 32 12 35 13 36 14 15 15 14 16 16 17 13 19 12 20 37 21 11 22
REMARK SMILES IDX 9 23 10 24 6 25 7 26 8 27 5 28 2 30 1 31 3 32 4 33 21 34
REMARK SMILES IDX 22 36 23 37 24 38 25 39 26 40
REMARK H PARENT 14 18 5 29 21 35 26 41
REMARK Flexibility Score: inf
ROOT
ATOM      1  C   UNL     1     128.822 117.655 134.285  1.00  0.00     0.162 A 
ATOM      2  C   UNL     1     129.328 118.969 134.254  1.00  0.00     0.171 A 
ATOM      3  N   UNL     1     129.131 119.863 135.280  1.00  0.00    -0.243 NA
ATOM      4  C   UNL     1     128.394 119.403 136.316  1.00  0.00     0.158 A 
ATOM      5  C   UNL     1     127.848 118.127 136.356  1.00  0.00     0.147 A 
ATOM      6  N   UNL     1     128.076 117.253 135.356  1.00  0.00    -0.210 NA
ENDROOT
BRANCH   1   7
ATOM      7  N   UNL     1     129.070 116.696 133.287  1.00  0.00    -0.355 N 
ATOM      8  C   UNL     1     129.317 115.366 133.888  1.00  0.00     0.118 C 
ATOM      9  C   UNL     1     128.119 116.717 132.158  1.00  0.00     0.118 C 
ATOM     10  C   UNL     1     129.163 114.250 132.848  1.00  0.00     0.028 C 
ATOM     11  C   UNL     1     127.078 115.597 132.252  1.00  0.00     0.028 C 
ATOM     12  C   UNL     1     127.753 114.234 132.282  1.00  0.00    -0.026 C 
ATOM     13  C   UNL     1     126.877 113.023 132.537  1.00  0.00     0.008 C 
ATOM     14  C   UNL     1     127.452 113.248 131.172  1.00  0.00     0.008 C 
ENDBRANCH   1   7
BRANCH   2  15
ATOM     15  C   UNL     1     130.098 119.558 133.092  1.00  0.00     0.279 C 
ATOM     16  N   UNL     1     131.069 118.692 132.626  1.00  0.00    -0.305 N 
ATOM     17  O   UNL     1     129.879 120.671 132.635  1.00  0.00    -0.267 OA
ATOM     18  H   UNL     1     131.146 117.809 133.121  1.00  0.00     0.171 HD
BRANCH  16  19
ATOM     19  C   UNL     1     131.983 118.863 131.591  1.00  0.00     0.134 A 
ATOM     20  C   UNL     1     132.490 120.099 131.199  1.00  0.00     0.047 A 
ATOM     21  N   UNL     1     132.341 117.712 130.989  1.00  0.00    -0.218 NA
ATOM     22  C   UNL     1     133.404 120.167 130.144  1.00  0.00     0.007 A 
ATOM     23  C   UNL     1     133.251 117.823 129.976  1.00  0.00     0.172 A 
ATOM     24  C   UNL     1     133.799 119.001 129.505  1.00  0.00     0.042 A 
BRANCH  23  25
ATOM     25  S   UNL     1     133.645 116.267 129.186  1.00  0.00     0.258 S 
ATOM     26  O   UNL     1     134.995 115.922 129.576  1.00  0.00    -0.205 OA
ATOM     27  O   UNL     1     133.251 116.361 127.796  1.00  0.00    -0.205 OA
BRANCH  25  28
ATOM     28  N   UNL     1     132.570 115.212 129.956  1.00  0.00    -0.205 NA
ATOM     29  H   UNL     1     132.604 115.355 130.971  1.00  0.00     0.142 HD
BRANCH  28  30
ATOM     30  C   UNL     1     132.361 113.823 129.492  1.00  0.00     0.025 C 
ATOM     31  C   UNL     1     132.785 113.634 128.033  1.00  0.00     0.028 C 
ATOM     32  C   UNL     1     130.851 113.555 129.605  1.00  0.00     0.028 C 
ATOM     33  C   UNL     1     133.108 112.849 130.409  1.00  0.00     0.028 C 
ENDBRANCH  28  30
ENDBRANCH  25  28
ENDBRANCH  23  25
ENDBRANCH  16  19
ENDBRANCH   2  15
BRANCH   5  34
ATOM     34  N   UNL     1     127.079 117.630 137.408  1.00  0.00    -0.362 N 
ATOM     35  H   UNL     1     126.674 118.493 137.785  1.00  0.00     0.162 HD
BRANCH  34  36
ATOM     36  C   UNL     1     127.773 116.920 138.524  1.00  0.00     0.056 C 
ATOM     37  C   UNL     1     126.762 115.881 139.061  1.00  0.00     0.037 C 
ATOM     38  C   UNL     1     128.153 117.864 139.674  1.00  0.00     0.037 C 
BRANCH  36  39
ATOM     39  C   UNL     1     129.018 116.160 138.001  1.00  0.00     0.183 C 
BRANCH  39  40
ATOM     40  O   UNL     1     128.631 114.956 137.336  1.00  0.00    -0.394 OA
ATOM     41  H   UNL     1     127.812 114.659 137.783  1.00  0.00     0.210 HD
ENDBRANCH  39  40
ENDBRANCH  36  39
ENDBRANCH  34  36
ENDBRANCH   5  34
TORSDOF 10
ENDMDL
