MODEL 1
REMARK VINA RESULT:     -12.4      0.000      0.000
REMARK SMILES Cc1ccc(C(=O)N(C)c2ccc(C(F)(F)F)cc2NS(=O)(=O)c2ccc(C3CCCCC3)cc2)cc1
REMARK SMILES IDX 10 1 11 2 12 3 13 4 18 5 19 6 8 7 9 8 6 9 7 10 5 11 4 12
REMARK SMILES IDX 36 13 3 14 37 15 2 16 1 17 20 18 21 20 22 21 23 22 24 23
REMARK SMILES IDX 25 24 35 25 26 26 34 27 27 28 28 29 29 30 33 31 30 32 32 33
REMARK SMILES IDX 31 34 14 35 15 36 16 37 17 38
REMARK H PARENT 20 19
REMARK Flexibility Score: inf
ROOT
ATOM      1  C   UNL     1     129.023 119.470 135.636  1.00  0.00     0.068 A 
ATOM      2  C   UNL     1     128.788 119.905 136.955  1.00  0.00     0.029 A 
ATOM      3  C   UNL     1     128.343 119.030 137.956  1.00  0.00     0.015 A 
ATOM      4  C   UNL     1     128.110 117.683 137.675  1.00  0.00     0.058 A 
ATOM      5  C   UNL     1     128.314 117.235 136.366  1.00  0.00     0.042 A 
ATOM      6  C   UNL     1     128.760 118.106 135.360  1.00  0.00     0.073 A 
ENDROOT
BRANCH   1   7
ATOM      7  N   UNL     1     129.458 120.427 134.632  1.00  0.00    -0.309 N 
ATOM      8  C   UNL     1     128.416 121.156 133.904  1.00  0.00     0.153 C 
BRANCH   7   9
ATOM      9  C   UNL     1     130.812 120.773 134.490  1.00  0.00     0.258 C 
ATOM     10  O   UNL     1     131.508 121.290 135.365  1.00  0.00    -0.269 OA
BRANCH   9  11
ATOM     11  C   UNL     1     131.491 120.499 133.206  1.00  0.00     0.040 A 
ATOM     12  C   UNL     1     132.134 121.543 132.538  1.00  0.00     0.014 A 
ATOM     13  C   UNL     1     131.540 119.194 132.703  1.00  0.00     0.014 A 
ATOM     14  C   UNL     1     132.800 121.286 131.339  1.00  0.00     0.004 A 
ATOM     15  C   UNL     1     132.209 118.944 131.504  1.00  0.00     0.004 A 
ATOM     16  C   UNL     1     132.849 119.985 130.817  1.00  0.00    -0.051 A 
ATOM     17  C   UNL     1     133.544 119.717 129.514  1.00  0.00     0.044 C 
ENDBRANCH   9  11
ENDBRANCH   7   9
ENDBRANCH   1   7
BRANCH   6  18
ATOM     18  N   UNL     1     128.800 117.550 134.045  1.00  0.00    -0.277 N 
ATOM     19  H   UNL     1     128.340 118.130 133.329  1.00  0.00     0.180 HD
BRANCH  18  20
ATOM     20  S   UNL     1     128.380 115.924 133.872  1.00  0.00     0.261 S 
ATOM     21  O   UNL     1     127.048 115.884 133.308  1.00  0.00    -0.201 OA
ATOM     22  O   UNL     1     128.689 115.198 135.087  1.00  0.00    -0.201 OA
BRANCH  20  23
ATOM     23  C   UNL     1     129.501 115.393 132.599  1.00  0.00     0.087 A 
ATOM     24  C   UNL     1     130.006 114.091 132.614  1.00  0.00     0.022 A 
ATOM     25  C   UNL     1     129.859 116.286 131.588  1.00  0.00     0.022 A 
ATOM     26  C   UNL     1     130.900 113.690 131.621  1.00  0.00     0.005 A 
ATOM     27  C   UNL     1     130.751 115.876 130.596  1.00  0.00     0.005 A 
ATOM     28  C   UNL     1     131.289 114.578 130.604  1.00  0.00    -0.045 A 
BRANCH  28  29
ATOM     29  C   UNL     1     132.264 114.115 129.534  1.00  0.00     0.019 C 
ATOM     30  C   UNL     1     131.642 113.097 128.567  1.00  0.00     0.008 C 
ATOM     31  C   UNL     1     133.570 113.574 130.151  1.00  0.00     0.008 C 
ATOM     32  C   UNL     1     132.585 112.780 127.401  1.00  0.00     0.001 C 
ATOM     33  C   UNL     1     134.313 112.592 129.238  1.00  0.00     0.001 C 
ATOM     34  C   UNL     1     134.067 112.884 127.765  1.00  0.00     0.000 C 
ENDBRANCH  28  29
ENDBRANCH  20  23
ENDBRANCH  18  20
ENDBRANCH   6  18
BRANCH   4  35
ATOM     35  C   UNL     1     127.600 116.740 138.734  1.00  0.00     0.416 C 
ATOM     36  F   UNL     1     128.271 115.555 138.765  1.00  0.00    -0.166 F 
ATOM     37  F   UNL     1     126.288 116.424 138.554  1.00  0.00    -0.166 F 
ATOM     38  F   UNL     1     127.691 117.251 139.994  1.00  0.00    -0.166 F 
ENDBRANCH   4  35
TORSDOF 8
ENDMDL
MODEL 2
REMARK VINA RESULT:     -12.3      0.441      1.111
REMARK SMILES Cc1ccc(C(=O)N(C)c2ccc(C(F)(F)F)cc2NS(=O)(=O)c2ccc(C3CCCCC3)cc2)cc1
REMARK SMILES IDX 10 1 11 2 12 3 13 4 18 5 19 6 8 7 9 8 6 9 7 10 5 11 4 12
REMARK SMILES IDX 36 13 3 14 37 15 2 16 1 17 20 18 21 20 22 21 23 22 24 23
REMARK SMILES IDX 25 24 35 25 26 26 34 27 27 28 28 29 29 30 33 31 30 32 32 33
REMARK SMILES IDX 31 34 14 35 15 36 16 37 17 38
REMARK H PARENT 20 19
REMARK Flexibility Score: inf
ROOT
ATOM      1  C   UNL     1     129.018 119.481 135.602  1.00  0.00     0.068 A 
ATOM      2  C   UNL     1     128.804 119.814 136.954  1.00  0.00     0.029 A 
ATOM      3  C   UNL     1     128.347 118.873 137.887  1.00  0.00     0.015 A 
ATOM      4  C   UNL     1     128.080 117.558 137.502  1.00  0.00     0.058 A 
ATOM      5  C   UNL     1     128.263 117.211 136.160  1.00  0.00     0.042 A 
ATOM      6  C   UNL     1     128.721 118.149 135.222  1.00  0.00     0.073 A 
ENDROOT
BRANCH   1   7
ATOM      7  N   UNL     1     129.467 120.505 134.674  1.00  0.00    -0.309 N 
ATOM      8  C   UNL     1     128.438 121.338 134.045  1.00  0.00     0.153 C 
BRANCH   7   9
ATOM      9  C   UNL     1     130.830 120.806 134.521  1.00  0.00     0.258 C 
ATOM     10  O   UNL     1     131.554 121.286 135.395  1.00  0.00    -0.269 OA
BRANCH   9  11
ATOM     11  C   UNL     1     131.484 120.528 133.225  1.00  0.00     0.040 A 
ATOM     12  C   UNL     1     132.127 121.567 132.549  1.00  0.00     0.014 A 
ATOM     13  C   UNL     1     131.512 119.224 132.719  1.00  0.00     0.014 A 
ATOM     14  C   UNL     1     132.770 121.307 131.337  1.00  0.00     0.004 A 
ATOM     15  C   UNL     1     132.158 118.970 131.508  1.00  0.00     0.004 A 
ATOM     16  C   UNL     1     132.797 120.006 130.813  1.00  0.00    -0.051 A 
ATOM     17  C   UNL     1     133.467 119.734 129.497  1.00  0.00     0.044 C 
ENDBRANCH   9  11
ENDBRANCH   7   9
ENDBRANCH   1   7
BRANCH   6  18
ATOM     18  N   UNL     1     128.737 117.699 133.866  1.00  0.00    -0.277 N 
ATOM     19  H   UNL     1     128.405 118.399 133.187  1.00  0.00     0.180 HD
BRANCH  18  20
ATOM     20  S   UNL     1     128.083 116.177 133.541  1.00  0.00     0.261 S 
ATOM     21  O   UNL     1     126.914 116.382 132.713  1.00  0.00    -0.201 OA
ATOM     22  O   UNL     1     127.995 115.402 134.762  1.00  0.00    -0.201 OA
BRANCH  20  23
ATOM     23  C   UNL     1     129.336 115.457 132.506  1.00  0.00     0.087 A 
ATOM     24  C   UNL     1     129.748 114.141 132.724  1.00  0.00     0.022 A 
ATOM     25  C   UNL     1     129.890 116.218 131.476  1.00  0.00     0.022 A 
ATOM     26  C   UNL     1     130.745 113.592 131.918  1.00  0.00     0.005 A 
ATOM     27  C   UNL     1     130.886 115.660 130.672  1.00  0.00     0.005 A 
ATOM     28  C   UNL     1     131.331 114.345 130.886  1.00  0.00    -0.045 A 
BRANCH  28  29
ATOM     29  C   UNL     1     132.415 113.722 130.023  1.00  0.00     0.019 C 
ATOM     30  C   UNL     1     133.605 114.666 129.793  1.00  0.00     0.008 C 
ATOM     31  C   UNL     1     131.848 113.204 128.685  1.00  0.00     0.008 C 
ATOM     32  C   UNL     1     134.754 113.956 129.069  1.00  0.00     0.001 C 
ATOM     33  C   UNL     1     132.897 113.114 127.572  1.00  0.00     0.001 C 
ATOM     34  C   UNL     1     134.291 112.847 128.122  1.00  0.00     0.000 C 
ENDBRANCH  28  29
ENDBRANCH  20  23
ENDBRANCH  18  20
ENDBRANCH   6  18
BRANCH   4  35
ATOM     35  C   UNL     1     127.557 116.545 138.488  1.00  0.00     0.416 C 
ATOM     36  F   UNL     1     127.443 117.036 139.752  1.00  0.00    -0.166 F 
ATOM     37  F   UNL     1     128.364 115.453 138.580  1.00  0.00    -0.166 F 
ATOM     38  F   UNL     1     126.323 116.069 138.161  1.00  0.00    -0.166 F 
ENDBRANCH   4  35
TORSDOF 8
ENDMDL
MODEL 3
REMARK VINA RESULT:     -12.2      0.526      1.338
REMARK SMILES Cc1ccc(C(=O)N(C)c2ccc(C(F)(F)F)cc2NS(=O)(=O)c2ccc(C3CCCCC3)cc2)cc1
REMARK SMILES IDX 10 1 11 2 12 3 13 4 18 5 19 6 8 7 9 8 6 9 7 10 5 11 4 12
REMARK SMILES IDX 36 13 3 14 37 15 2 16 1 17 20 18 21 20 22 21 23 22 24 23
REMARK SMILES IDX 25 24 35 25 26 26 34 27 27 28 28 29 29 30 33 31 30 32 32 33
REMARK SMILES IDX 31 34 14 35 15 36 16 37 17 38
REMARK H PARENT 20 19
REMARK Flexibility Score: inf
ROOT
ATOM      1  C   UNL     1     129.055 119.498 135.586  1.00  0.00     0.068 A 
ATOM      2  C   UNL     1     128.795 119.775 136.942  1.00  0.00     0.029 A 
ATOM      3  C   UNL     1     128.366 118.781 137.834  1.00  0.00     0.015 A 
ATOM      4  C   UNL     1     128.175 117.468 137.400  1.00  0.00     0.058 A 
ATOM      5  C   UNL     1     128.405 117.175 136.052  1.00  0.00     0.042 A 
ATOM      6  C   UNL     1     128.835 118.166 135.156  1.00  0.00     0.073 A 
ENDROOT
BRANCH   1   7
ATOM      7  N   UNL     1     129.472 120.573 134.701  1.00  0.00    -0.309 N 
ATOM      8  C   UNL     1     128.418 121.417 134.129  1.00  0.00     0.153 C 
BRANCH   7   9
ATOM      9  C   UNL     1     130.827 120.906 134.543  1.00  0.00     0.258 C 
ATOM     10  O   UNL     1     131.535 121.427 135.405  1.00  0.00    -0.269 OA
BRANCH   9  11
ATOM     11  C   UNL     1     131.490 120.613 133.255  1.00  0.00     0.040 A 
ATOM     12  C   UNL     1     132.177 121.633 132.594  1.00  0.00     0.014 A 
ATOM     13  C   UNL     1     131.483 119.311 132.742  1.00  0.00     0.014 A 
ATOM     14  C   UNL     1     132.830 121.357 131.392  1.00  0.00     0.004 A 
ATOM     15  C   UNL     1     132.138 119.042 131.540  1.00  0.00     0.004 A 
ATOM     16  C   UNL     1     132.822 120.060 130.860  1.00  0.00    -0.051 A 
ATOM     17  C   UNL     1     133.502 119.772 129.553  1.00  0.00     0.044 C 
ENDBRANCH   9  11
ENDBRANCH   7   9
ENDBRANCH   1   7
BRANCH   6  18
ATOM     18  N   UNL     1     128.905 117.762 133.787  1.00  0.00    -0.277 N 
ATOM     19  H   UNL     1     128.653 118.503 133.117  1.00  0.00     0.180 HD
BRANCH  18  20
ATOM     20  S   UNL     1     128.185 116.294 133.369  1.00  0.00     0.261 S 
ATOM     21  O   UNL     1     127.083 116.594 132.480  1.00  0.00    -0.201 OA
ATOM     22  O   UNL     1     127.977 115.486 134.554  1.00  0.00    -0.201 OA
BRANCH  20  23
ATOM     23  C   UNL     1     129.455 115.534 132.386  1.00  0.00     0.087 A 
ATOM     24  C   UNL     1     130.114 116.275 131.403  1.00  0.00     0.022 A 
ATOM     25  C   UNL     1     129.789 114.198 132.615  1.00  0.00     0.022 A 
ATOM     26  C   UNL     1     131.097 115.663 130.625  1.00  0.00     0.005 A 
ATOM     27  C   UNL     1     130.775 113.594 131.834  1.00  0.00     0.005 A 
ATOM     28  C   UNL     1     131.436 114.315 130.825  1.00  0.00    -0.045 A 
BRANCH  28  29
ATOM     29  C   UNL     1     132.510 113.673 129.963  1.00  0.00     0.019 C 
ATOM     30  C   UNL     1     133.739 114.576 129.780  1.00  0.00     0.008 C 
ATOM     31  C   UNL     1     131.948 113.213 128.603  1.00  0.00     0.008 C 
ATOM     32  C   UNL     1     134.874 113.841 129.057  1.00  0.00     0.001 C 
ATOM     33  C   UNL     1     133.013 113.112 127.506  1.00  0.00     0.001 C 
ATOM     34  C   UNL     1     134.386 112.777 128.073  1.00  0.00     0.000 C 
ENDBRANCH  28  29
ENDBRANCH  20  23
ENDBRANCH  18  20
ENDBRANCH   6  18
BRANCH   4  35
ATOM     35  C   UNL     1     127.684 116.397 138.340  1.00  0.00     0.416 C 
ATOM     36  F   UNL     1     126.658 115.664 137.828  1.00  0.00    -0.166 F 
ATOM     37  F   UNL     1     127.227 116.913 139.514  1.00  0.00    -0.166 F 
ATOM     38  F   UNL     1     128.650 115.498 138.679  1.00  0.00    -0.166 F 
ENDBRANCH   4  35
TORSDOF 8
ENDMDL
MODEL 4
REMARK VINA RESULT:     -12.0      0.606      1.435
REMARK SMILES Cc1ccc(C(=O)N(C)c2ccc(C(F)(F)F)cc2NS(=O)(=O)c2ccc(C3CCCCC3)cc2)cc1
REMARK SMILES IDX 10 1 11 2 12 3 13 4 18 5 19 6 8 7 9 8 6 9 7 10 5 11 4 12
REMARK SMILES IDX 36 13 3 14 37 15 2 16 1 17 20 18 21 20 22 21 23 22 24 23
REMARK SMILES IDX 25 24 35 25 26 26 34 27 27 28 28 29 29 30 33 31 30 32 32 33
REMARK SMILES IDX 31 34 14 35 15 36 16 37 17 38
REMARK H PARENT 20 19
REMARK Flexibility Score: inf
ROOT
ATOM      1  C   UNL     1     129.088 119.452 135.665  1.00  0.00     0.068 A 
ATOM      2  C   UNL     1     128.408 119.898 136.815  1.00  0.00     0.029 A 
ATOM      3  C   UNL     1     127.961 119.011 137.805  1.00  0.00     0.015 A 
ATOM      4  C   UNL     1     128.175 117.638 137.680  1.00  0.00     0.058 A 
ATOM      5  C   UNL     1     128.828 117.170 136.536  1.00  0.00     0.042 A 
ATOM      6  C   UNL     1     129.277 118.053 135.542  1.00  0.00     0.073 A 
ENDROOT
BRANCH   1   7
ATOM      7  N   UNL     1     129.504 120.413 134.658  1.00  0.00    -0.309 N 
ATOM      8  C   UNL     1     128.448 121.083 133.894  1.00  0.00     0.153 C 
BRANCH   7   9
ATOM      9  C   UNL     1     130.843 120.820 134.545  1.00  0.00     0.258 C 
ATOM     10  O   UNL     1     131.497 121.366 135.434  1.00  0.00    -0.269 OA
BRANCH   9  11
ATOM     11  C   UNL     1     131.560 120.580 133.274  1.00  0.00     0.040 A 
ATOM     12  C   UNL     1     131.506 119.313 132.691  1.00  0.00     0.014 A 
ATOM     13  C   UNL     1     132.226 121.631 132.635  1.00  0.00     0.014 A 
ATOM     14  C   UNL     1     132.157 119.086 131.477  1.00  0.00     0.004 A 
ATOM     15  C   UNL     1     132.873 121.398 131.421  1.00  0.00     0.004 A 
ATOM     16  C   UNL     1     132.838 120.127 130.830  1.00  0.00    -0.051 A 
ATOM     17  C   UNL     1     133.558 119.874 129.538  1.00  0.00     0.044 C 
ENDBRANCH   9  11
ENDBRANCH   7   9
ENDBRANCH   1   7
BRANCH   6  18
ATOM     18  N   UNL     1     129.808 117.433 134.369  1.00  0.00    -0.277 N 
ATOM     19  H   UNL     1     130.404 118.052 133.800  1.00  0.00     0.180 HD
BRANCH  18  20
ATOM     20  S   UNL     1     128.741 116.556 133.399  1.00  0.00     0.261 S 
ATOM     21  O   UNL     1     128.018 117.511 132.586  1.00  0.00    -0.201 OA
ATOM     22  O   UNL     1     128.028 115.580 134.199  1.00  0.00    -0.201 OA
BRANCH  20  23
ATOM     23  C   UNL     1     129.858 115.692 132.320  1.00  0.00     0.087 A 
ATOM     24  C   UNL     1     130.066 114.321 132.486  1.00  0.00     0.022 A 
ATOM     25  C   UNL     1     130.512 116.396 131.308  1.00  0.00     0.022 A 
ATOM     26  C   UNL     1     130.959 113.656 131.645  1.00  0.00     0.005 A 
ATOM     27  C   UNL     1     131.402 115.723 130.470  1.00  0.00     0.005 A 
ATOM     28  C   UNL     1     131.643 114.348 130.632  1.00  0.00    -0.045 A 
BRANCH  28  29
ATOM     29  C   UNL     1     132.610 113.599 129.731  1.00  0.00     0.019 C 
ATOM     30  C   UNL     1     134.007 114.237 129.700  1.00  0.00     0.008 C 
ATOM     31  C   UNL     1     132.044 113.430 128.306  1.00  0.00     0.008 C 
ATOM     32  C   UNL     1     135.005 113.369 128.927  1.00  0.00     0.001 C 
ATOM     33  C   UNL     1     133.126 113.235 127.239  1.00  0.00     0.001 C 
ATOM     34  C   UNL     1     134.366 112.554 127.801  1.00  0.00     0.000 C 
ENDBRANCH  28  29
ENDBRANCH  20  23
ENDBRANCH  18  20
ENDBRANCH   6  18
BRANCH   4  35
ATOM     35  C   UNL     1     127.672 116.671 138.721  1.00  0.00     0.416 C 
ATOM     36  F   UNL     1     126.384 116.280 138.513  1.00  0.00    -0.166 F 
ATOM     37  F   UNL     1     127.705 117.200 139.975  1.00  0.00    -0.166 F 
ATOM     38  F   UNL     1     128.403 115.523 138.782  1.00  0.00    -0.166 F 
ENDBRANCH   4  35
TORSDOF 8
ENDMDL
MODEL 5
REMARK VINA RESULT:     -12.0      0.731      1.306
REMARK SMILES Cc1ccc(C(=O)N(C)c2ccc(C(F)(F)F)cc2NS(=O)(=O)c2ccc(C3CCCCC3)cc2)cc1
REMARK SMILES IDX 10 1 11 2 12 3 13 4 18 5 19 6 8 7 9 8 6 9 7 10 5 11 4 12
REMARK SMILES IDX 36 13 3 14 37 15 2 16 1 17 20 18 21 20 22 21 23 22 24 23
REMARK SMILES IDX 25 24 35 25 26 26 34 27 27 28 28 29 29 30 33 31 30 32 32 33
REMARK SMILES IDX 31 34 14 35 15 36 16 37 17 38
REMARK H PARENT 20 19
REMARK Flexibility Score: inf
ROOT
ATOM      1  C   UNL     1     128.857 119.264 135.592  1.00  0.00     0.068 A 
ATOM      2  C   UNL     1     128.750 119.538 136.970  1.00  0.00     0.029 A 
ATOM      3  C   UNL     1     128.249 118.593 137.878  1.00  0.00     0.015 A 
ATOM      4  C   UNL     1     127.832 117.336 137.440  1.00  0.00     0.058 A 
ATOM      5  C   UNL     1     127.908 117.050 136.073  1.00  0.00     0.042 A 
ATOM      6  C   UNL     1     128.408 117.991 135.161  1.00  0.00     0.073 A 
ENDROOT
BRANCH   1   7
ATOM      7  N   UNL     1     129.358 120.290 134.693  1.00  0.00    -0.309 N 
ATOM      8  C   UNL     1     128.371 121.184 134.080  1.00  0.00     0.153 C 
BRANCH   7   9
ATOM      9  C   UNL     1     130.734 120.536 134.558  1.00  0.00     0.258 C 
ATOM     10  O   UNL     1     131.473 120.951 135.452  1.00  0.00    -0.269 OA
BRANCH   9  11
ATOM     11  C   UNL     1     131.383 120.277 133.255  1.00  0.00     0.040 A 
ATOM     12  C   UNL     1     131.340 118.989 132.717  1.00  0.00     0.014 A 
ATOM     13  C   UNL     1     131.974 121.326 132.545  1.00  0.00     0.014 A 
ATOM     14  C   UNL     1     131.926 118.742 131.475  1.00  0.00     0.004 A 
ATOM     15  C   UNL     1     132.557 121.073 131.303  1.00  0.00     0.004 A 
ATOM     16  C   UNL     1     132.532 119.783 130.755  1.00  0.00    -0.051 A 
ATOM     17  C   UNL     1     133.184 119.509 129.432  1.00  0.00     0.044 C 
ENDBRANCH   9  11
ENDBRANCH   7   9
ENDBRANCH   1   7
BRANCH   6  18
ATOM     18  N   UNL     1     128.308 117.621 133.785  1.00  0.00    -0.277 N 
ATOM     19  H   UNL     1     127.799 118.301 133.202  1.00  0.00     0.180 HD
BRANCH  18  20
ATOM     20  S   UNL     1     127.827 116.041 133.435  1.00  0.00     0.261 S 
ATOM     21  O   UNL     1     126.638 116.127 132.614  1.00  0.00    -0.201 OA
ATOM     22  O   UNL     1     127.832 115.240 134.643  1.00  0.00    -0.201 OA
BRANCH  20  23
ATOM     23  C   UNL     1     129.147 115.483 132.385  1.00  0.00     0.087 A 
ATOM     24  C   UNL     1     129.869 114.336 132.722  1.00  0.00     0.022 A 
ATOM     25  C   UNL     1     129.444 116.198 131.223  1.00  0.00     0.022 A 
ATOM     26  C   UNL     1     130.916 113.918 131.900  1.00  0.00     0.005 A 
ATOM     27  C   UNL     1     130.491 115.771 130.405  1.00  0.00     0.005 A 
ATOM     28  C   UNL     1     131.245 114.632 130.736  1.00  0.00    -0.045 A 
BRANCH  28  29
ATOM     29  C   UNL     1     132.390 114.154 129.858  1.00  0.00     0.019 C 
ATOM     30  C   UNL     1     133.021 112.850 130.367  1.00  0.00     0.008 C 
ATOM     31  C   UNL     1     133.456 115.253 129.667  1.00  0.00     0.008 C 
ATOM     32  C   UNL     1     134.051 112.299 129.374  1.00  0.00     0.001 C 
ATOM     33  C   UNL     1     134.843 114.701 129.321  1.00  0.00     0.001 C 
ATOM     34  C   UNL     1     134.761 113.384 128.562  1.00  0.00     0.000 C 
ENDBRANCH  28  29
ENDBRANCH  20  23
ENDBRANCH  18  20
ENDBRANCH   6  18
BRANCH   4  35
ATOM     35  C   UNL     1     127.262 116.323 138.401  1.00  0.00     0.416 C 
ATOM     36  F   UNL     1     126.110 115.750 137.955  1.00  0.00    -0.166 F 
ATOM     37  F   UNL     1     126.966 116.871 139.611  1.00  0.00    -0.166 F 
ATOM     38  F   UNL     1     128.114 115.292 138.657  1.00  0.00    -0.166 F 
ENDBRANCH   4  35
TORSDOF 8
ENDMDL
MODEL 6
REMARK VINA RESULT:     -12.0      3.257      5.648
REMARK SMILES Cc1ccc(C(=O)N(C)c2ccc(C(F)(F)F)cc2NS(=O)(=O)c2ccc(C3CCCCC3)cc2)cc1
REMARK SMILES IDX 10 1 11 2 12 3 13 4 18 5 19 6 8 7 9 8 6 9 7 10 5 11 4 12
REMARK SMILES IDX 36 13 3 14 37 15 2 16 1 17 20 18 21 20 22 21 23 22 24 23
REMARK SMILES IDX 25 24 35 25 26 26 34 27 27 28 28 29 29 30 33 31 30 32 32 33
REMARK SMILES IDX 31 34 14 35 15 36 16 37 17 38
REMARK H PARENT 20 19
REMARK Flexibility Score: inf
ROOT
ATOM      1  C   UNL     1     130.250 120.424 134.941  1.00  0.00     0.068 A 
ATOM      2  C   UNL     1     130.785 121.653 134.509  1.00  0.00     0.029 A 
ATOM      3  C   UNL     1     131.565 121.757 133.349  1.00  0.00     0.015 A 
ATOM      4  C   UNL     1     131.845 120.630 132.575  1.00  0.00     0.058 A 
ATOM      5  C   UNL     1     131.344 119.394 132.997  1.00  0.00     0.042 A 
ATOM      6  C   UNL     1     130.562 119.285 134.157  1.00  0.00     0.073 A 
ENDROOT
BRANCH   1   7
ATOM      7  N   UNL     1     129.471 120.371 136.166  1.00  0.00    -0.309 N 
ATOM      8  C   UNL     1     128.228 121.148 136.205  1.00  0.00     0.153 C 
BRANCH   7   9
ATOM      9  C   UNL     1     129.792 119.475 137.200  1.00  0.00     0.258 C 
ATOM     10  O   UNL     1     130.779 119.561 137.931  1.00  0.00    -0.269 OA
BRANCH   9  11
ATOM     11  C   UNL     1     128.891 118.334 137.465  1.00  0.00     0.040 A 
ATOM     12  C   UNL     1     127.557 118.411 137.058  1.00  0.00     0.014 A 
ATOM     13  C   UNL     1     129.389 117.169 138.057  1.00  0.00     0.014 A 
ATOM     14  C   UNL     1     126.706 117.326 137.279  1.00  0.00     0.004 A 
ATOM     15  C   UNL     1     128.534 116.088 138.275  1.00  0.00     0.004 A 
ATOM     16  C   UNL     1     127.189 116.156 137.882  1.00  0.00    -0.051 A 
ATOM     17  C   UNL     1     126.266 115.001 138.143  1.00  0.00     0.044 C 
ENDBRANCH   9  11
ENDBRANCH   7   9
ENDBRANCH   1   7
BRANCH   6  18
ATOM     18  N   UNL     1     130.227 117.951 134.544  1.00  0.00    -0.277 N 
ATOM     19  H   UNL     1     131.042 117.349 134.729  1.00  0.00     0.180 HD
BRANCH  18  20
ATOM     20  S   UNL     1     129.068 117.140 133.623  1.00  0.00     0.261 S 
ATOM     21  O   UNL     1     128.296 118.145 132.924  1.00  0.00    -0.201 OA
ATOM     22  O   UNL     1     128.408 116.132 134.430  1.00  0.00    -0.201 OA
BRANCH  20  23
ATOM     23  C   UNL     1     130.077 116.319 132.412  1.00  0.00     0.087 A 
ATOM     24  C   UNL     1     130.822 117.071 131.501  1.00  0.00     0.022 A 
ATOM     25  C   UNL     1     130.119 114.924 132.390  1.00  0.00     0.022 A 
ATOM     26  C   UNL     1     131.596 116.416 130.543  1.00  0.00     0.005 A 
ATOM     27  C   UNL     1     130.898 114.277 131.430  1.00  0.00     0.005 A 
ATOM     28  C   UNL     1     131.639 115.013 130.490  1.00  0.00    -0.045 A 
BRANCH  28  29
ATOM     29  C   UNL     1     132.491 114.325 129.436  1.00  0.00     0.019 C 
ATOM     30  C   UNL     1     131.759 113.164 128.748  1.00  0.00     0.008 C 
ATOM     31  C   UNL     1     133.847 113.867 130.012  1.00  0.00     0.008 C 
ATOM     32  C   UNL     1     132.571 112.603 127.575  1.00  0.00     0.001 C 
ATOM     33  C   UNL     1     134.478 112.708 129.234  1.00  0.00     0.001 C 
ATOM     34  C   UNL     1     134.084 112.725 127.763  1.00  0.00     0.000 C 
ENDBRANCH  28  29
ENDBRANCH  20  23
ENDBRANCH  18  20
ENDBRANCH   6  18
BRANCH   4  35
ATOM     35  C   UNL     1     132.710 120.721 131.343  1.00  0.00     0.416 C 
ATOM     36  F   UNL     1     133.694 121.656 131.447  1.00  0.00    -0.166 F 
ATOM     37  F   UNL     1     131.992 121.053 130.235  1.00  0.00    -0.166 F 
ATOM     38  F   UNL     1     133.339 119.551 131.044  1.00  0.00    -0.166 F 
ENDBRANCH   4  35
TORSDOF 8
ENDMDL
MODEL 7
REMARK VINA RESULT:     -11.9      0.445      1.207
REMARK SMILES Cc1ccc(C(=O)N(C)c2ccc(C(F)(F)F)cc2NS(=O)(=O)c2ccc(C3CCCCC3)cc2)cc1
REMARK SMILES IDX 10 1 11 2 12 3 13 4 18 5 19 6 8 7 9 8 6 9 7 10 5 11 4 12
REMARK SMILES IDX 36 13 3 14 37 15 2 16 1 17 20 18 21 20 22 21 23 22 24 23
REMARK SMILES IDX 25 24 35 25 26 26 34 27 27 28 28 29 29 30 33 31 30 32 32 33
REMARK SMILES IDX 31 34 14 35 15 36 16 37 17 38
REMARK H PARENT 20 19
REMARK Flexibility Score: inf
ROOT
ATOM      1  C   UNL     1     128.963 119.274 135.477  1.00  0.00     0.068 A 
ATOM      2  C   UNL     1     128.783 119.568 136.843  1.00  0.00     0.029 A 
ATOM      3  C   UNL     1     128.298 118.614 137.750  1.00  0.00     0.015 A 
ATOM      4  C   UNL     1     127.970 117.327 137.323  1.00  0.00     0.058 A 
ATOM      5  C   UNL     1     128.119 117.020 135.967  1.00  0.00     0.042 A 
ATOM      6  C   UNL     1     128.604 117.970 135.055  1.00  0.00     0.073 A 
ENDROOT
BRANCH   1   7
ATOM      7  N   UNL     1     129.444 120.309 134.577  1.00  0.00    -0.309 N 
ATOM      8  C   UNL     1     128.436 121.150 133.924  1.00  0.00     0.153 C 
BRANCH   7   9
ATOM      9  C   UNL     1     130.811 120.614 134.477  1.00  0.00     0.258 C 
ATOM     10  O   UNL     1     131.507 121.063 135.388  1.00  0.00    -0.269 OA
BRANCH   9  11
ATOM     11  C   UNL     1     131.504 120.380 133.192  1.00  0.00     0.040 A 
ATOM     12  C   UNL     1     131.464 119.108 132.618  1.00  0.00     0.014 A 
ATOM     13  C   UNL     1     132.133 121.440 132.531  1.00  0.00     0.014 A 
ATOM     14  C   UNL     1     132.092 118.885 131.391  1.00  0.00     0.004 A 
ATOM     15  C   UNL     1     132.758 121.212 131.304  1.00  0.00     0.004 A 
ATOM     16  C   UNL     1     132.736 119.936 130.722  1.00  0.00    -0.051 A 
ATOM     17  C   UNL     1     133.433 119.689 129.416  1.00  0.00     0.044 C 
ENDBRANCH   9  11
ENDBRANCH   7   9
ENDBRANCH   1   7
BRANCH   6  18
ATOM     18  N   UNL     1     128.582 117.568 133.685  1.00  0.00    -0.277 N 
ATOM     19  H   UNL     1     128.126 118.244 133.055  1.00  0.00     0.180 HD
BRANCH  18  20
ATOM     20  S   UNL     1     128.090 115.990 133.342  1.00  0.00     0.261 S 
ATOM     21  O   UNL     1     126.886 116.080 132.545  1.00  0.00    -0.201 OA
ATOM     22  O   UNL     1     128.117 115.187 134.549  1.00  0.00    -0.201 OA
BRANCH  20  23
ATOM     23  C   UNL     1     129.388 115.430 132.265  1.00  0.00     0.087 A 
ATOM     24  C   UNL     1     129.750 116.195 131.155  1.00  0.00     0.022 A 
ATOM     25  C   UNL     1     130.041 114.229 132.549  1.00  0.00     0.022 A 
ATOM     26  C   UNL     1     130.758 115.737 130.306  1.00  0.00     0.005 A 
ATOM     27  C   UNL     1     131.050 113.779 131.696  1.00  0.00     0.005 A 
ATOM     28  C   UNL     1     131.416 114.522 130.561  1.00  0.00    -0.045 A 
BRANCH  28  29
ATOM     29  C   UNL     1     132.511 114.047 129.620  1.00  0.00     0.019 C 
ATOM     30  C   UNL     1     131.958 113.294 128.400  1.00  0.00     0.008 C 
ATOM     31  C   UNL     1     133.571 113.207 130.361  1.00  0.00     0.008 C 
ATOM     32  C   UNL     1     133.063 112.980 127.385  1.00  0.00     0.001 C 
ATOM     33  C   UNL     1     134.335 112.244 129.444  1.00  0.00     0.001 C 
ATOM     34  C   UNL     1     134.439 112.773 128.021  1.00  0.00     0.000 C 
ENDBRANCH  28  29
ENDBRANCH  20  23
ENDBRANCH  18  20
ENDBRANCH   6  18
BRANCH   4  35
ATOM     35  C   UNL     1     127.417 116.303 138.281  1.00  0.00     0.416 C 
ATOM     36  F   UNL     1     127.728 115.023 137.935  1.00  0.00    -0.166 F 
ATOM     37  F   UNL     1     126.059 116.352 138.360  1.00  0.00    -0.166 F 
ATOM     38  F   UNL     1     127.871 116.464 139.556  1.00  0.00    -0.166 F 
ENDBRANCH   4  35
TORSDOF 8
ENDMDL
MODEL 8
REMARK VINA RESULT:     -11.9      0.844      1.648
REMARK SMILES Cc1ccc(C(=O)N(C)c2ccc(C(F)(F)F)cc2NS(=O)(=O)c2ccc(C3CCCCC3)cc2)cc1
REMARK SMILES IDX 10 1 11 2 12 3 13 4 18 5 19 6 8 7 9 8 6 9 7 10 5 11 4 12
REMARK SMILES IDX 36 13 3 14 37 15 2 16 1 17 20 18 21 20 22 21 23 22 24 23
REMARK SMILES IDX 25 24 35 25 26 26 34 27 27 28 28 29 29 30 33 31 30 32 32 33
REMARK SMILES IDX 31 34 14 35 15 36 16 37 17 38
REMARK H PARENT 20 19
REMARK Flexibility Score: inf
ROOT
ATOM      1  C   UNL     1     129.453 119.394 135.198  1.00  0.00     0.068 A 
ATOM      2  C   UNL     1     129.621 119.554 136.588  1.00  0.00     0.029 A 
ATOM      3  C   UNL     1     129.402 118.502 137.488  1.00  0.00     0.015 A 
ATOM      4  C   UNL     1     129.000 117.246 137.033  1.00  0.00     0.058 A 
ATOM      5  C   UNL     1     128.804 117.070 135.659  1.00  0.00     0.042 A 
ATOM      6  C   UNL     1     129.023 118.119 134.754  1.00  0.00     0.073 A 
ENDROOT
BRANCH   1   7
ATOM      7  N   UNL     1     129.669 120.527 134.314  1.00  0.00    -0.309 N 
ATOM      8  C   UNL     1     128.480 121.229 133.822  1.00  0.00     0.153 C 
BRANCH   7   9
ATOM      9  C   UNL     1     130.955 121.041 134.084  1.00  0.00     0.258 C 
ATOM     10  O   UNL     1     131.556 121.810 134.835  1.00  0.00    -0.269 OA
BRANCH   9  11
ATOM     11  C   UNL     1     131.679 120.639 132.859  1.00  0.00     0.040 A 
ATOM     12  C   UNL     1     131.574 119.323 132.407  1.00  0.00     0.014 A 
ATOM     13  C   UNL     1     132.404 121.587 132.131  1.00  0.00     0.014 A 
ATOM     14  C   UNL     1     132.232 118.942 131.236  1.00  0.00     0.004 A 
ATOM     15  C   UNL     1     133.059 121.201 130.960  1.00  0.00     0.004 A 
ATOM     16  C   UNL     1     132.972 119.880 130.500  1.00  0.00    -0.051 A 
ATOM     17  C   UNL     1     133.699 119.462 129.256  1.00  0.00     0.044 C 
ENDBRANCH   9  11
ENDBRANCH   7   9
ENDBRANCH   1   7
BRANCH   6  18
ATOM     18  N   UNL     1     128.660 117.843 133.400  1.00  0.00    -0.277 N 
ATOM     19  H   UNL     1     128.096 118.582 132.956  1.00  0.00     0.180 HD
BRANCH  18  20
ATOM     20  S   UNL     1     128.035 116.313 133.056  1.00  0.00     0.261 S 
ATOM     21  O   UNL     1     126.956 116.494 132.108  1.00  0.00    -0.201 OA
ATOM     22  O   UNL     1     127.821 115.575 134.285  1.00  0.00    -0.201 OA
BRANCH  20  23
ATOM     23  C   UNL     1     129.383 115.560 132.175  1.00  0.00     0.087 A 
ATOM     24  C   UNL     1     130.015 116.255 131.143  1.00  0.00     0.022 A 
ATOM     25  C   UNL     1     129.801 114.278 132.534  1.00  0.00     0.022 A 
ATOM     26  C   UNL     1     131.060 115.647 130.446  1.00  0.00     0.005 A 
ATOM     27  C   UNL     1     130.849 113.678 131.834  1.00  0.00     0.005 A 
ATOM     28  C   UNL     1     131.486 114.350 130.777  1.00  0.00    -0.045 A 
BRANCH  28  29
ATOM     29  C   UNL     1     132.626 113.712 130.002  1.00  0.00     0.019 C 
ATOM     30  C   UNL     1     133.817 114.662 129.810  1.00  0.00     0.008 C 
ATOM     31  C   UNL     1     132.146 113.140 128.652  1.00  0.00     0.008 C 
ATOM     32  C   UNL     1     135.016 113.943 129.182  1.00  0.00     0.001 C 
ATOM     33  C   UNL     1     133.262 113.026 127.608  1.00  0.00     0.001 C 
ATOM     34  C   UNL     1     134.623 112.796 128.249  1.00  0.00     0.000 C 
ENDBRANCH  28  29
ENDBRANCH  20  23
ENDBRANCH  18  20
ENDBRANCH   6  18
BRANCH   4  35
ATOM     35  C   UNL     1     128.729 116.115 137.993  1.00  0.00     0.416 C 
ATOM     36  F   UNL     1     129.863 115.532 138.468  1.00  0.00    -0.166 F 
ATOM     37  F   UNL     1     128.004 115.116 137.419  1.00  0.00    -0.166 F 
ATOM     38  F   UNL     1     128.023 116.505 139.091  1.00  0.00    -0.166 F 
ENDBRANCH   4  35
TORSDOF 8
ENDMDL
MODEL 9
REMARK VINA RESULT:     -11.8      3.229      5.770
REMARK SMILES Cc1ccc(C(=O)N(C)c2ccc(C(F)(F)F)cc2NS(=O)(=O)c2ccc(C3CCCCC3)cc2)cc1
REMARK SMILES IDX 10 1 11 2 12 3 13 4 18 5 19 6 8 7 9 8 6 9 7 10 5 11 4 12
REMARK SMILES IDX 36 13 3 14 37 15 2 16 1 17 20 18 21 20 22 21 23 22 24 23
REMARK SMILES IDX 25 24 35 25 26 26 34 27 27 28 28 29 29 30 33 31 30 32 32 33
REMARK SMILES IDX 31 34 14 35 15 36 16 37 17 38
REMARK H PARENT 20 19
REMARK Flexibility Score: inf
ROOT
ATOM      1  C   UNL     1     130.168 120.326 134.960  1.00  0.00     0.068 A 
ATOM      2  C   UNL     1     130.796 121.526 134.570  1.00  0.00     0.029 A 
ATOM      3  C   UNL     1     131.570 121.614 133.404  1.00  0.00     0.015 A 
ATOM      4  C   UNL     1     131.750 120.501 132.582  1.00  0.00     0.058 A 
ATOM      5  C   UNL     1     131.155 119.294 132.962  1.00  0.00     0.042 A 
ATOM      6  C   UNL     1     130.379 119.200 134.127  1.00  0.00     0.073 A 
ENDROOT
BRANCH   1   7
ATOM      7  N   UNL     1     129.400 120.286 136.193  1.00  0.00    -0.309 N 
ATOM      8  C   UNL     1     128.174 121.087 136.246  1.00  0.00     0.153 C 
BRANCH   7   9
ATOM      9  C   UNL     1     129.715 119.382 137.221  1.00  0.00     0.258 C 
ATOM     10  O   UNL     1     130.735 119.417 137.909  1.00  0.00    -0.269 OA
BRANCH   9  11
ATOM     11  C   UNL     1     128.762 118.295 137.535  1.00  0.00     0.040 A 
ATOM     12  C   UNL     1     129.118 117.329 138.478  1.00  0.00     0.014 A 
ATOM     13  C   UNL     1     127.497 118.279 136.940  1.00  0.00     0.014 A 
ATOM     14  C   UNL     1     128.213 116.316 138.801  1.00  0.00     0.004 A 
ATOM     15  C   UNL     1     126.596 117.264 137.267  1.00  0.00     0.004 A 
ATOM     16  C   UNL     1     126.944 116.280 138.204  1.00  0.00    -0.051 A 
ATOM     17  C   UNL     1     125.983 115.175 138.533  1.00  0.00     0.044 C 
ENDBRANCH   9  11
ENDBRANCH   7   9
ENDBRANCH   1   7
BRANCH   6  18
ATOM     18  N   UNL     1     129.941 117.882 134.465  1.00  0.00    -0.277 N 
ATOM     19  H   UNL     1     130.703 117.241 134.730  1.00  0.00     0.180 HD
BRANCH  18  20
ATOM     20  S   UNL     1     128.850 117.131 133.419  1.00  0.00     0.261 S 
ATOM     21  O   UNL     1     128.282 118.163 132.579  1.00  0.00    -0.201 OA
ATOM     22  O   UNL     1     127.992 116.228 134.160  1.00  0.00    -0.201 OA
BRANCH  20  23
ATOM     23  C   UNL     1     129.935 116.163 132.396  1.00  0.00     0.087 A 
ATOM     24  C   UNL     1     130.752 116.794 131.456  1.00  0.00     0.022 A 
ATOM     25  C   UNL     1     129.964 114.777 132.552  1.00  0.00     0.022 A 
ATOM     26  C   UNL     1     131.586 116.023 130.645  1.00  0.00     0.005 A 
ATOM     27  C   UNL     1     130.803 114.013 131.739  1.00  0.00     0.005 A 
ATOM     28  C   UNL     1     131.618 114.624 130.771  1.00  0.00    -0.045 A 
BRANCH  28  29
ATOM     29  C   UNL     1     132.536 113.809 129.876  1.00  0.00     0.019 C 
ATOM     30  C   UNL     1     133.920 114.452 129.704  1.00  0.00     0.008 C 
ATOM     31  C   UNL     1     131.883 113.515 128.510  1.00  0.00     0.008 C 
ATOM     32  C   UNL     1     134.879 113.530 128.944  1.00  0.00     0.001 C 
ATOM     33  C   UNL     1     132.899 113.239 127.396  1.00  0.00     0.001 C 
ATOM     34  C   UNL     1     134.181 112.617 127.934  1.00  0.00     0.000 C 
ENDBRANCH  28  29
ENDBRANCH  20  23
ENDBRANCH  18  20
ENDBRANCH   6  18
BRANCH   4  35
ATOM     35  C   UNL     1     132.605 120.574 131.343  1.00  0.00     0.416 C 
ATOM     36  F   UNL     1     133.569 121.533 131.413  1.00  0.00    -0.166 F 
ATOM     37  F   UNL     1     131.875 120.855 130.229  1.00  0.00    -0.166 F 
ATOM     38  F   UNL     1     133.259 119.409 131.076  1.00  0.00    -0.166 F 
ENDBRANCH   4  35
TORSDOF 8
ENDMDL
