MODEL 1
REMARK VINA RESULT:     -11.8      0.000      0.000
REMARK SMILES O=C(Nc1cccc(N2CCC(F)(F)CC2)c1)c1ccc(NS(=O)(=O)CCO)cc1N1CCC2(CC1)CC2
REMARK SMILES IDX 22 1 21 3 30 4 18 5 29 6 19 7 20 8 31 9 32 10 36 11 33 12
REMARK SMILES IDX 35 13 34 14 37 15 38 16 2 17 3 18 1 19 4 21 5 22 17 23 6 24
REMARK SMILES IDX 8 25 7 26 9 27 10 28 16 29 11 30 15 31 12 32 13 33 14 34
REMARK SMILES IDX 23 35 24 36 25 37 26 38 27 39 28 40
REMARK H PARENT 22 2 3 20 28 41
REMARK Flexibility Score: inf
ROOT
ATOM      1  N   UNL     1     134.488 114.491 128.801  1.00  0.00    -0.283 N 
ATOM      2  H   UNL     1     135.342 115.005 129.017  1.00  0.00     0.180 HD
ENDROOT
BRANCH   1   3
ATOM      3  C   UNL     1     133.303 114.852 129.503  1.00  0.00     0.051 A 
ATOM      4  C   UNL     1     131.814 116.629 130.301  1.00  0.00     0.052 A 
ATOM      5  C   UNL     1     131.000 115.642 130.917  1.00  0.00     0.063 A 
ATOM      6  C   UNL     1     132.962 116.204 129.599  1.00  0.00     0.053 A 
ATOM      7  C   UNL     1     131.359 114.284 130.805  1.00  0.00     0.018 A 
ATOM      8  C   UNL     1     132.499 113.892 130.102  1.00  0.00     0.028 A 
BRANCH   4   9
ATOM      9  N   UNL     1     131.527 118.013 130.432  1.00  0.00    -0.371 N 
ATOM     10  C   UNL     1     132.178 118.915 129.447  1.00  0.00     0.117 C 
ATOM     11  C   UNL     1     131.622 118.437 131.855  1.00  0.00     0.117 C 
ATOM     12  C   UNL     1     133.183 119.872 130.095  1.00  0.00     0.028 C 
ATOM     13  C   UNL     1     131.449 119.955 131.969  1.00  0.00     0.028 C 
ATOM     14  C   UNL     1     132.535 120.687 131.199  1.00  0.00    -0.026 C 
ATOM     15  C   UNL     1     132.362 122.179 130.996  1.00  0.00     0.008 C 
ATOM     16  C   UNL     1     133.410 121.677 131.943  1.00  0.00     0.008 C 
ENDBRANCH   4   9
BRANCH   5  17
ATOM     17  C   UNL     1     129.734 115.931 131.684  1.00  0.00     0.257 C 
ATOM     18  N   UNL     1     129.681 115.414 132.961  1.00  0.00    -0.322 N 
ATOM     19  O   UNL     1     128.862 116.604 131.144  1.00  0.00    -0.269 OA
ATOM     20  H   UNL     1     130.491 114.853 133.220  1.00  0.00     0.170 HD
BRANCH  18  21
ATOM     21  C   UNL     1     128.652 115.520 133.916  1.00  0.00     0.043 A 
ATOM     22  C   UNL     1     127.409 114.990 133.566  1.00  0.00     0.026 A 
ATOM     23  C   UNL     1     128.806 116.118 135.173  1.00  0.00     0.052 A 
ATOM     24  C   UNL     1     126.345 115.057 134.460  1.00  0.00     0.004 A 
ATOM     25  C   UNL     1     127.750 116.207 136.101  1.00  0.00     0.039 A 
ATOM     26  C   UNL     1     126.519 115.657 135.709  1.00  0.00     0.026 A 
BRANCH  25  27
ATOM     27  N   UNL     1     127.916 116.797 137.351  1.00  0.00    -0.371 N 
ATOM     28  C   UNL     1     127.979 118.258 137.485  1.00  0.00     0.122 C 
ATOM     29  C   UNL     1     127.858 115.982 138.571  1.00  0.00     0.122 C 
ATOM     30  C   UNL     1     128.744 118.619 138.747  1.00  0.00     0.098 C 
ATOM     31  C   UNL     1     127.239 116.784 139.701  1.00  0.00     0.098 C 
ATOM     32  C   UNL     1     128.055 118.032 139.960  1.00  0.00     0.251 C 
ATOM     33  F   UNL     1     127.241 118.971 140.517  1.00  0.00    -0.207 F 
ATOM     34  F   UNL     1     129.000 117.762 140.903  1.00  0.00    -0.207 F 
ENDBRANCH  25  27
ENDBRANCH  18  21
ENDBRANCH   5  17
ENDBRANCH   1   3
BRANCH   1  35
ATOM     35  S   UNL     1     134.791 112.871 128.446  1.00  0.00     0.234 S 
ATOM     36  O   UNL     1     134.310 112.679 127.094  1.00  0.00    -0.207 OA
ATOM     37  O   UNL     1     134.322 112.038 129.531  1.00  0.00    -0.207 OA
BRANCH  35  38
ATOM     38  C   UNL     1     136.572 112.811 128.400  1.00  0.00     0.188 C 
BRANCH  38  39
ATOM     39  C   UNL     1     137.112 112.384 129.748  1.00  0.00     0.174 C 
BRANCH  39  40
ATOM     40  O   UNL     1     137.118 110.960 129.811  1.00  0.00    -0.395 OA
ATOM     41  H   UNL     1     137.970 110.663 129.442  1.00  0.00     0.210 HD
ENDBRANCH  39  40
ENDBRANCH  38  39
ENDBRANCH  35  38
ENDBRANCH   1  35
TORSDOF 9
ENDMDL
MODEL 2
REMARK VINA RESULT:     -11.2      0.615      1.224
REMARK SMILES O=C(Nc1cccc(N2CCC(F)(F)CC2)c1)c1ccc(NS(=O)(=O)CCO)cc1N1CCC2(CC1)CC2
REMARK SMILES IDX 22 1 21 3 30 4 18 5 29 6 19 7 20 8 31 9 32 10 36 11 33 12
REMARK SMILES IDX 35 13 34 14 37 15 38 16 2 17 3 18 1 19 4 21 5 22 17 23 6 24
REMARK SMILES IDX 8 25 7 26 9 27 10 28 16 29 11 30 15 31 12 32 13 33 14 34
REMARK SMILES IDX 23 35 24 36 25 37 26 38 27 39 28 40
REMARK H PARENT 22 2 3 20 28 41
REMARK Flexibility Score: inf
ROOT
ATOM      1  N   UNL     1     134.481 114.213 128.905  1.00  0.00    -0.283 N 
ATOM      2  H   UNL     1     134.990 114.927 128.384  1.00  0.00     0.180 HD
ENDROOT
BRANCH   1   3
ATOM      3  C   UNL     1     133.263 114.596 129.535  1.00  0.00     0.051 A 
ATOM      4  C   UNL     1     131.746 116.398 130.216  1.00  0.00     0.052 A 
ATOM      5  C   UNL     1     130.895 115.429 130.809  1.00  0.00     0.063 A 
ATOM      6  C   UNL     1     132.927 115.952 129.584  1.00  0.00     0.053 A 
ATOM      7  C   UNL     1     131.249 114.068 130.744  1.00  0.00     0.018 A 
ATOM      8  C   UNL     1     132.422 113.654 130.111  1.00  0.00     0.028 A 
BRANCH   4   9
ATOM      9  N   UNL     1     131.463 117.787 130.302  1.00  0.00    -0.371 N 
ATOM     10  C   UNL     1     132.144 118.659 129.310  1.00  0.00     0.117 C 
ATOM     11  C   UNL     1     131.523 118.248 131.715  1.00  0.00     0.117 C 
ATOM     12  C   UNL     1     133.136 119.629 129.958  1.00  0.00     0.028 C 
ATOM     13  C   UNL     1     131.354 119.769 131.784  1.00  0.00     0.028 C 
ATOM     14  C   UNL     1     132.463 120.476 131.022  1.00  0.00    -0.026 C 
ATOM     15  C   UNL     1     132.303 121.962 130.775  1.00  0.00     0.008 C 
ATOM     16  C   UNL     1     133.323 121.482 131.762  1.00  0.00     0.008 C 
ENDBRANCH   4   9
BRANCH   5  17
ATOM     17  C   UNL     1     129.592 115.743 131.501  1.00  0.00     0.257 C 
ATOM     18  N   UNL     1     129.505 115.337 132.815  1.00  0.00    -0.322 N 
ATOM     19  O   UNL     1     128.722 116.337 130.873  1.00  0.00    -0.269 OA
ATOM     20  H   UNL     1     130.320 114.828 133.152  1.00  0.00     0.170 HD
BRANCH  18  21
ATOM     21  C   UNL     1     128.437 115.492 133.720  1.00  0.00     0.043 A 
ATOM     22  C   UNL     1     127.185 115.035 133.304  1.00  0.00     0.026 A 
ATOM     23  C   UNL     1     128.561 116.069 134.990  1.00  0.00     0.052 A 
ATOM     24  C   UNL     1     126.084 115.154 134.145  1.00  0.00     0.004 A 
ATOM     25  C   UNL     1     127.467 116.209 135.866  1.00  0.00     0.039 A 
ATOM     26  C   UNL     1     126.228 115.732 135.408  1.00  0.00     0.026 A 
BRANCH  25  27
ATOM     27  N   UNL     1     127.602 116.778 137.130  1.00  0.00    -0.371 N 
ATOM     28  C   UNL     1     127.654 115.931 138.328  1.00  0.00     0.122 C 
ATOM     29  C   UNL     1     127.866 118.215 137.274  1.00  0.00     0.122 C 
ATOM     30  C   UNL     1     127.194 116.729 139.535  1.00  0.00     0.098 C 
ATOM     31  C   UNL     1     128.754 118.460 138.480  1.00  0.00     0.098 C 
ATOM     32  C   UNL     1     128.086 117.937 139.733  1.00  0.00     0.251 C 
ATOM     33  F   UNL     1     129.052 117.640 140.645  1.00  0.00    -0.207 F 
ATOM     34  F   UNL     1     127.345 118.931 140.295  1.00  0.00    -0.207 F 
ENDBRANCH  25  27
ENDBRANCH  18  21
ENDBRANCH   5  17
ENDBRANCH   1   3
BRANCH   1  35
ATOM     35  S   UNL     1     135.514 113.123 129.671  1.00  0.00     0.234 S 
ATOM     36  O   UNL     1     134.787 111.872 129.716  1.00  0.00    -0.207 OA
ATOM     37  O   UNL     1     136.047 113.721 130.875  1.00  0.00    -0.207 OA
BRANCH  35  38
ATOM     38  C   UNL     1     136.832 112.940 128.486  1.00  0.00     0.188 C 
BRANCH  38  39
ATOM     39  C   UNL     1     137.923 112.060 129.054  1.00  0.00     0.174 C 
BRANCH  39  40
ATOM     40  O   UNL     1     137.324 111.038 129.846  1.00  0.00    -0.395 OA
ATOM     41  H   UNL     1     137.469 111.279 130.779  1.00  0.00     0.210 HD
ENDBRANCH  39  40
ENDBRANCH  38  39
ENDBRANCH  35  38
ENDBRANCH   1  35
TORSDOF 9
ENDMDL
MODEL 3
REMARK VINA RESULT:     -11.1      1.901      4.340
REMARK SMILES O=C(Nc1cccc(N2CCC(F)(F)CC2)c1)c1ccc(NS(=O)(=O)CCO)cc1N1CCC2(CC1)CC2
REMARK SMILES IDX 22 1 21 3 30 4 18 5 29 6 19 7 20 8 31 9 32 10 36 11 33 12
REMARK SMILES IDX 35 13 34 14 37 15 38 16 2 17 3 18 1 19 4 21 5 22 17 23 6 24
REMARK SMILES IDX 8 25 7 26 9 27 10 28 16 29 11 30 15 31 12 32 13 33 14 34
REMARK SMILES IDX 23 35 24 36 25 37 26 38 27 39 28 40
REMARK H PARENT 22 2 3 20 28 41
REMARK Flexibility Score: inf
ROOT
ATOM      1  N   UNL     1     133.560 114.116 128.088  1.00  0.00    -0.283 N 
ATOM      2  H   UNL     1     133.744 114.339 127.110  1.00  0.00     0.180 HD
ENDROOT
BRANCH   1   3
ATOM      3  C   UNL     1     133.064 115.159 128.922  1.00  0.00     0.051 A 
ATOM      4  C   UNL     1     131.436 115.883 130.606  1.00  0.00     0.052 A 
ATOM      5  C   UNL     1     132.000 117.185 130.561  1.00  0.00     0.063 A 
ATOM      6  C   UNL     1     131.990 114.887 129.773  1.00  0.00     0.053 A 
ATOM      7  C   UNL     1     133.085 117.437 129.699  1.00  0.00     0.018 A 
ATOM      8  C   UNL     1     133.614 116.432 128.888  1.00  0.00     0.028 A 
BRANCH   4   9
ATOM      9  N   UNL     1     130.307 115.592 131.416  1.00  0.00    -0.371 N 
ATOM     10  C   UNL     1     130.303 114.265 132.085  1.00  0.00     0.117 C 
ATOM     11  C   UNL     1     129.048 115.964 130.715  1.00  0.00     0.117 C 
ATOM     12  C   UNL     1     129.184 113.351 131.579  1.00  0.00     0.028 C 
ATOM     13  C   UNL     1     127.834 115.520 131.535  1.00  0.00     0.028 C 
ATOM     14  C   UNL     1     127.825 114.012 131.724  1.00  0.00    -0.026 C 
ATOM     15  C   UNL     1     126.839 113.439 132.722  1.00  0.00     0.008 C 
ATOM     16  C   UNL     1     126.613 113.230 131.255  1.00  0.00     0.008 C 
ENDBRANCH   4   9
BRANCH   5  17
ATOM     17  C   UNL     1     131.537 118.350 131.400  1.00  0.00     0.257 C 
ATOM     18  N   UNL     1     131.066 118.028 132.655  1.00  0.00    -0.322 N 
ATOM     19  O   UNL     1     131.621 119.481 130.932  1.00  0.00    -0.269 OA
ATOM     20  H   UNL     1     131.043 117.029 132.851  1.00  0.00     0.170 HD
BRANCH  18  21
ATOM     21  C   UNL     1     130.579 118.882 133.663  1.00  0.00     0.043 A 
ATOM     22  C   UNL     1     130.650 120.254 133.417  1.00  0.00     0.026 A 
ATOM     23  C   UNL     1     130.039 118.437 134.876  1.00  0.00     0.052 A 
ATOM     24  C   UNL     1     130.187 121.159 134.367  1.00  0.00     0.004 A 
ATOM     25  C   UNL     1     129.564 119.324 135.862  1.00  0.00     0.039 A 
ATOM     26  C   UNL     1     129.651 120.695 135.571  1.00  0.00     0.026 A 
BRANCH  25  27
ATOM     27  N   UNL     1     129.022 118.871 137.062  1.00  0.00    -0.371 N 
ATOM     28  C   UNL     1     127.733 118.167 137.080  1.00  0.00     0.122 C 
ATOM     29  C   UNL     1     129.804 118.935 138.302  1.00  0.00     0.122 C 
ATOM     30  C   UNL     1     127.088 118.325 138.446  1.00  0.00     0.098 C 
ATOM     31  C   UNL     1     129.467 117.751 139.190  1.00  0.00     0.098 C 
ATOM     32  C   UNL     1     127.990 117.751 139.518  1.00  0.00     0.251 C 
ATOM     33  F   UNL     1     127.610 116.473 139.792  1.00  0.00    -0.207 F 
ATOM     34  F   UNL     1     127.786 118.449 140.669  1.00  0.00    -0.207 F 
ENDBRANCH  25  27
ENDBRANCH  18  21
ENDBRANCH   5  17
ENDBRANCH   1   3
BRANCH   1  35
ATOM     35  S   UNL     1     134.663 113.001 128.707  1.00  0.00     0.234 S 
ATOM     36  O   UNL     1     135.490 112.616 127.583  1.00  0.00    -0.207 OA
ATOM     37  O   UNL     1     133.964 112.010 129.495  1.00  0.00    -0.207 OA
BRANCH  35  38
ATOM     38  C   UNL     1     135.659 114.003 129.793  1.00  0.00     0.188 C 
BRANCH  38  39
ATOM     39  C   UNL     1     136.428 113.122 130.753  1.00  0.00     0.174 C 
BRANCH  39  40
ATOM     40  O   UNL     1     136.828 111.937 130.070  1.00  0.00    -0.395 OA
ATOM     41  H   UNL     1     137.416 111.446 130.673  1.00  0.00     0.210 HD
ENDBRANCH  39  40
ENDBRANCH  38  39
ENDBRANCH  35  38
ENDBRANCH   1  35
TORSDOF 9
ENDMDL
MODEL 4
REMARK VINA RESULT:     -11.0      1.768      4.258
REMARK SMILES O=C(Nc1cccc(N2CCC(F)(F)CC2)c1)c1ccc(NS(=O)(=O)CCO)cc1N1CCC2(CC1)CC2
REMARK SMILES IDX 22 1 21 3 30 4 18 5 29 6 19 7 20 8 31 9 32 10 36 11 33 12
REMARK SMILES IDX 35 13 34 14 37 15 38 16 2 17 3 18 1 19 4 21 5 22 17 23 6 24
REMARK SMILES IDX 8 25 7 26 9 27 10 28 16 29 11 30 15 31 12 32 13 33 14 34
REMARK SMILES IDX 23 35 24 36 25 37 26 38 27 39 28 40
REMARK H PARENT 22 2 3 20 28 41
REMARK Flexibility Score: inf
ROOT
ATOM      1  N   UNL     1     133.927 114.071 128.032  1.00  0.00    -0.283 N 
ATOM      2  H   UNL     1     134.300 114.574 127.226  1.00  0.00     0.180 HD
ENDROOT
BRANCH   1   3
ATOM      3  C   UNL     1     133.053 114.778 128.906  1.00  0.00     0.051 A 
ATOM      4  C   UNL     1     131.146 114.714 130.445  1.00  0.00     0.052 A 
ATOM      5  C   UNL     1     131.260 116.120 130.611  1.00  0.00     0.063 A 
ATOM      6  C   UNL     1     132.059 114.068 129.583  1.00  0.00     0.053 A 
ATOM      7  C   UNL     1     132.272 116.816 129.921  1.00  0.00     0.018 A 
ATOM      8  C   UNL     1     133.162 116.151 129.078  1.00  0.00     0.028 A 
BRANCH   4   9
ATOM      9  N   UNL     1     130.109 113.975 131.072  1.00  0.00    -0.371 N 
ATOM     10  C   UNL     1     128.810 113.925 130.353  1.00  0.00     0.117 C 
ATOM     11  C   UNL     1     130.032 114.305 132.521  1.00  0.00     0.117 C 
ATOM     12  C   UNL     1     127.685 114.632 131.114  1.00  0.00     0.028 C 
ATOM     13  C   UNL     1     128.825 113.610 133.159  1.00  0.00     0.028 C 
ATOM     14  C   UNL     1     127.528 114.068 132.515  1.00  0.00    -0.026 C 
ATOM     15  C   UNL     1     126.270 113.293 132.850  1.00  0.00     0.008 C 
ATOM     16  C   UNL     1     126.455 114.676 133.398  1.00  0.00     0.008 C 
ENDBRANCH   4   9
BRANCH   5  17
ATOM     17  C   UNL     1     130.377 116.951 131.508  1.00  0.00     0.257 C 
ATOM     18  N   UNL     1     131.026 117.634 132.513  1.00  0.00    -0.322 N 
ATOM     19  O   UNL     1     129.171 116.979 131.282  1.00  0.00    -0.269 OA
ATOM     20  H   UNL     1     132.028 117.458 132.560  1.00  0.00     0.170 HD
BRANCH  18  21
ATOM     21  C   UNL     1     130.486 118.490 133.493  1.00  0.00     0.043 A 
ATOM     22  C   UNL     1     130.484 119.856 133.206  1.00  0.00     0.026 A 
ATOM     23  C   UNL     1     129.964 118.053 134.716  1.00  0.00     0.052 A 
ATOM     24  C   UNL     1     129.967 120.762 134.125  1.00  0.00     0.004 A 
ATOM     25  C   UNL     1     129.436 118.942 135.673  1.00  0.00     0.039 A 
ATOM     26  C   UNL     1     129.450 120.306 135.340  1.00  0.00     0.026 A 
BRANCH  25  27
ATOM     27  N   UNL     1     128.912 118.496 136.883  1.00  0.00    -0.371 N 
ATOM     28  C   UNL     1     127.532 117.998 136.961  1.00  0.00     0.122 C 
ATOM     29  C   UNL     1     129.776 118.356 138.061  1.00  0.00     0.122 C 
ATOM     30  C   UNL     1     127.014 118.159 138.379  1.00  0.00     0.098 C 
ATOM     31  C   UNL     1     129.318 117.180 138.903  1.00  0.00     0.098 C 
ATOM     32  C   UNL     1     127.884 117.383 139.344  1.00  0.00     0.251 C 
ATOM     33  F   UNL     1     127.328 116.162 139.574  1.00  0.00    -0.207 F 
ATOM     34  F   UNL     1     127.872 118.023 140.546  1.00  0.00    -0.207 F 
ENDBRANCH  25  27
ENDBRANCH  18  21
ENDBRANCH   5  17
ENDBRANCH   1   3
BRANCH   1  35
ATOM     35  S   UNL     1     135.035 112.969 128.665  1.00  0.00     0.234 S 
ATOM     36  O   UNL     1     135.883 112.597 127.552  1.00  0.00    -0.207 OA
ATOM     37  O   UNL     1     134.338 111.967 129.440  1.00  0.00    -0.207 OA
BRANCH  35  38
ATOM     38  C   UNL     1     136.003 113.982 129.767  1.00  0.00     0.188 C 
BRANCH  38  39
ATOM     39  C   UNL     1     136.538 113.143 130.906  1.00  0.00     0.174 C 
BRANCH  39  40
ATOM     40  O   UNL     1     137.265 112.043 130.366  1.00  0.00    -0.395 OA
ATOM     41  H   UNL     1     136.693 111.626 129.696  1.00  0.00     0.210 HD
ENDBRANCH  39  40
ENDBRANCH  38  39
ENDBRANCH  35  38
ENDBRANCH   1  35
TORSDOF 9
ENDMDL
MODEL 5
REMARK VINA RESULT:     -10.9      0.997      1.148
REMARK SMILES O=C(Nc1cccc(N2CCC(F)(F)CC2)c1)c1ccc(NS(=O)(=O)CCO)cc1N1CCC2(CC1)CC2
REMARK SMILES IDX 22 1 21 3 30 4 18 5 29 6 19 7 20 8 31 9 32 10 36 11 33 12
REMARK SMILES IDX 35 13 34 14 37 15 38 16 2 17 3 18 1 19 4 21 5 22 17 23 6 24
REMARK SMILES IDX 8 25 7 26 9 27 10 28 16 29 11 30 15 31 12 32 13 33 14 34
REMARK SMILES IDX 23 35 24 36 25 37 26 38 27 39 28 40
REMARK H PARENT 22 2 3 20 28 41
REMARK Flexibility Score: inf
ROOT
ATOM      1  N   UNL     1     134.481 114.206 128.825  1.00  0.00    -0.283 N 
ATOM      2  H   UNL     1     134.505 114.285 127.808  1.00  0.00     0.180 HD
ENDROOT
BRANCH   1   3
ATOM      3  C   UNL     1     133.277 114.574 129.489  1.00  0.00     0.051 A 
ATOM      4  C   UNL     1     131.770 116.359 130.234  1.00  0.00     0.052 A 
ATOM      5  C   UNL     1     130.935 115.377 130.830  1.00  0.00     0.063 A 
ATOM      6  C   UNL     1     132.938 115.927 129.569  1.00  0.00     0.053 A 
ATOM      7  C   UNL     1     131.293 114.018 130.734  1.00  0.00     0.018 A 
ATOM      8  C   UNL     1     132.453 113.619 130.068  1.00  0.00     0.028 A 
BRANCH   4   9
ATOM      9  N   UNL     1     131.484 117.745 130.350  1.00  0.00    -0.371 N 
ATOM     10  C   UNL     1     132.113 118.632 129.338  1.00  0.00     0.117 C 
ATOM     11  C   UNL     1     131.608 118.189 131.765  1.00  0.00     0.117 C 
ATOM     12  C   UNL     1     133.129 119.600 129.951  1.00  0.00     0.028 C 
ATOM     13  C   UNL     1     131.434 119.708 131.859  1.00  0.00     0.028 C 
ATOM     14  C   UNL     1     132.503 120.431 131.056  1.00  0.00    -0.026 C 
ATOM     15  C   UNL     1     132.324 121.919 130.834  1.00  0.00     0.008 C 
ATOM     16  C   UNL     1     133.391 121.433 131.767  1.00  0.00     0.008 C 
ENDBRANCH   4   9
BRANCH   5  17
ATOM     17  C   UNL     1     129.648 115.673 131.557  1.00  0.00     0.257 C 
ATOM     18  N   UNL     1     129.639 115.365 132.900  1.00  0.00    -0.322 N 
ATOM     19  O   UNL     1     128.720 116.171 130.928  1.00  0.00    -0.269 OA
ATOM     20  H   UNL     1     130.495 114.927 133.235  1.00  0.00     0.170 HD
BRANCH  18  21
ATOM     21  C   UNL     1     128.603 115.532 133.840  1.00  0.00     0.043 A 
ATOM     22  C   UNL     1     127.333 115.089 133.465  1.00  0.00     0.026 A 
ATOM     23  C   UNL     1     128.775 116.110 135.104  1.00  0.00     0.052 A 
ATOM     24  C   UNL     1     126.262 115.221 134.342  1.00  0.00     0.004 A 
ATOM     25  C   UNL     1     127.712 116.262 136.015  1.00  0.00     0.039 A 
ATOM     26  C   UNL     1     126.454 115.799 135.599  1.00  0.00     0.026 A 
BRANCH  25  27
ATOM     27  N   UNL     1     127.896 116.830 137.273  1.00  0.00    -0.371 N 
ATOM     28  C   UNL     1     127.954 118.289 137.432  1.00  0.00     0.122 C 
ATOM     29  C   UNL     1     127.863 115.993 138.479  1.00  0.00     0.122 C 
ATOM     30  C   UNL     1     128.738 118.632 138.687  1.00  0.00     0.098 C 
ATOM     31  C   UNL     1     127.259 116.771 139.634  1.00  0.00     0.098 C 
ATOM     32  C   UNL     1     128.073 118.019 139.902  1.00  0.00     0.251 C 
ATOM     33  F   UNL     1     127.263 118.944 140.488  1.00  0.00    -0.207 F 
ATOM     34  F   UNL     1     129.035 117.738 140.823  1.00  0.00    -0.207 F 
ENDBRANCH  25  27
ENDBRANCH  18  21
ENDBRANCH   5  17
ENDBRANCH   1   3
BRANCH   1  35
ATOM     35  S   UNL     1     135.970 114.567 129.528  1.00  0.00     0.234 S 
ATOM     36  O   UNL     1     135.834 114.200 130.923  1.00  0.00    -0.207 OA
ATOM     37  O   UNL     1     136.382 115.898 129.143  1.00  0.00    -0.207 OA
BRANCH  35  38
ATOM     38  C   UNL     1     137.059 113.382 128.762  1.00  0.00     0.188 C 
BRANCH  38  39
ATOM     39  C   UNL     1     136.906 112.031 129.427  1.00  0.00     0.174 C 
BRANCH  39  40
ATOM     40  O   UNL     1     135.600 111.940 129.991  1.00  0.00    -0.395 OA
ATOM     41  H   UNL     1     135.689 112.123 130.944  1.00  0.00     0.210 HD
ENDBRANCH  39  40
ENDBRANCH  38  39
ENDBRANCH  35  38
ENDBRANCH   1  35
TORSDOF 9
ENDMDL
MODEL 6
REMARK VINA RESULT:     -10.8      5.288     10.145
REMARK SMILES O=C(Nc1cccc(N2CCC(F)(F)CC2)c1)c1ccc(NS(=O)(=O)CCO)cc1N1CCC2(CC1)CC2
REMARK SMILES IDX 22 1 21 3 30 4 18 5 29 6 19 7 20 8 31 9 32 10 36 11 33 12
REMARK SMILES IDX 35 13 34 14 37 15 38 16 2 17 3 18 1 19 4 21 5 22 17 23 6 24
REMARK SMILES IDX 8 25 7 26 9 27 10 28 16 29 11 30 15 31 12 32 13 33 14 34
REMARK SMILES IDX 23 35 24 36 25 37 26 38 27 39 28 40
REMARK H PARENT 22 2 3 20 28 41
REMARK Flexibility Score: inf
ROOT
ATOM      1  N   UNL     1     127.549 118.511 137.687  1.00  0.00    -0.283 N 
ATOM      2  H   UNL     1     126.545 118.653 137.579  1.00  0.00     0.180 HD
ENDROOT
BRANCH   1   3
ATOM      3  C   UNL     1     128.360 118.612 136.520  1.00  0.00     0.051 A 
ATOM      4  C   UNL     1     129.090 117.625 134.398  1.00  0.00     0.052 A 
ATOM      5  C   UNL     1     129.971 118.723 134.214  1.00  0.00     0.063 A 
ATOM      6  C   UNL     1     128.294 117.596 135.564  1.00  0.00     0.053 A 
ATOM      7  C   UNL     1     130.019 119.739 135.189  1.00  0.00     0.018 A 
ATOM      8  C   UNL     1     129.219 119.686 136.331  1.00  0.00     0.028 A 
BRANCH   4   9
ATOM      9  N   UNL     1     129.044 116.548 133.474  1.00  0.00    -0.371 N 
ATOM     10  C   UNL     1     127.994 116.625 132.426  1.00  0.00     0.117 C 
ATOM     11  C   UNL     1     129.154 115.244 134.183  1.00  0.00     0.117 C 
ATOM     12  C   UNL     1     126.946 115.516 132.556  1.00  0.00     0.028 C 
ATOM     13  C   UNL     1     128.965 114.088 133.196  1.00  0.00     0.028 C 
ATOM     14  C   UNL     1     127.592 114.143 132.547  1.00  0.00    -0.026 C 
ATOM     15  C   UNL     1     127.341 113.229 131.365  1.00  0.00     0.008 C 
ATOM     16  C   UNL     1     126.680 112.939 132.678  1.00  0.00     0.008 C 
ENDBRANCH   4   9
BRANCH   5  17
ATOM     17  C   UNL     1     130.869 118.910 133.017  1.00  0.00     0.257 C 
ATOM     18  N   UNL     1     131.026 117.803 132.213  1.00  0.00    -0.322 N 
ATOM     19  O   UNL     1     131.376 120.012 132.831  1.00  0.00    -0.269 OA
ATOM     20  H   UNL     1     130.549 116.968 132.551  1.00  0.00     0.170 HD
BRANCH  18  21
ATOM     21  C   UNL     1     131.782 117.666 131.033  1.00  0.00     0.043 A 
ATOM     22  C   UNL     1     131.800 118.758 130.164  1.00  0.00     0.026 A 
ATOM     23  C   UNL     1     132.501 116.514 130.690  1.00  0.00     0.052 A 
ATOM     24  C   UNL     1     132.526 118.696 128.979  1.00  0.00     0.004 A 
ATOM     25  C   UNL     1     133.244 116.415 129.498  1.00  0.00     0.039 A 
ATOM     26  C   UNL     1     133.238 117.539 128.656  1.00  0.00     0.026 A 
BRANCH  25  27
ATOM     27  N   UNL     1     133.963 115.268 129.170  1.00  0.00    -0.371 N 
ATOM     28  C   UNL     1     135.227 114.960 129.850  1.00  0.00     0.122 C 
ATOM     29  C   UNL     1     133.388 114.263 128.267  1.00  0.00     0.122 C 
ATOM     30  C   UNL     1     136.083 114.079 128.956  1.00  0.00     0.098 C 
ATOM     31  C   UNL     1     133.843 112.875 128.678  1.00  0.00     0.098 C 
ATOM     32  C   UNL     1     135.354 112.791 128.640  1.00  0.00     0.251 C 
ATOM     33  F   UNL     1     135.753 111.821 129.508  1.00  0.00    -0.207 F 
ATOM     34  F   UNL     1     135.748 112.364 127.408  1.00  0.00    -0.207 F 
ENDBRANCH  25  27
ENDBRANCH  18  21
ENDBRANCH   5  17
ENDBRANCH   1   3
BRANCH   1  35
ATOM     35  S   UNL     1     127.908 117.355 138.859  1.00  0.00     0.234 S 
ATOM     36  O   UNL     1     128.025 118.092 140.100  1.00  0.00    -0.207 OA
ATOM     37  O   UNL     1     128.980 116.503 138.393  1.00  0.00    -0.207 OA
BRANCH  35  38
ATOM     38  C   UNL     1     126.405 116.401 138.936  1.00  0.00     0.188 C 
BRANCH  38  39
ATOM     39  C   UNL     1     126.492 115.218 137.997  1.00  0.00     0.174 C 
BRANCH  39  40
ATOM     40  O   UNL     1     126.357 115.683 136.657  1.00  0.00    -0.395 OA
ATOM     41  H   UNL     1     125.995 116.586 136.705  1.00  0.00     0.210 HD
ENDBRANCH  39  40
ENDBRANCH  38  39
ENDBRANCH  35  38
ENDBRANCH   1  35
TORSDOF 9
ENDMDL
MODEL 7
REMARK VINA RESULT:     -10.3      1.864      4.207
REMARK SMILES O=C(Nc1cccc(N2CCC(F)(F)CC2)c1)c1ccc(NS(=O)(=O)CCO)cc1N1CCC2(CC1)CC2
REMARK SMILES IDX 22 1 21 3 30 4 18 5 29 6 19 7 20 8 31 9 32 10 36 11 33 12
REMARK SMILES IDX 35 13 34 14 37 15 38 16 2 17 3 18 1 19 4 21 5 22 17 23 6 24
REMARK SMILES IDX 8 25 7 26 9 27 10 28 16 29 11 30 15 31 12 32 13 33 14 34
REMARK SMILES IDX 23 35 24 36 25 37 26 38 27 39 28 40
REMARK H PARENT 22 2 3 20 28 41
REMARK Flexibility Score: inf
ROOT
ATOM      1  N   UNL     1     134.009 113.967 127.991  1.00  0.00    -0.283 N 
ATOM      2  H   UNL     1     134.356 114.453 127.164  1.00  0.00     0.180 HD
ENDROOT
BRANCH   1   3
ATOM      3  C   UNL     1     133.134 114.681 128.858  1.00  0.00     0.051 A 
ATOM      4  C   UNL     1     131.206 114.634 130.373  1.00  0.00     0.052 A 
ATOM      5  C   UNL     1     131.337 116.036 130.549  1.00  0.00     0.063 A 
ATOM      6  C   UNL     1     132.121 113.980 129.519  1.00  0.00     0.053 A 
ATOM      7  C   UNL     1     132.368 116.723 129.877  1.00  0.00     0.018 A 
ATOM      8  C   UNL     1     133.260 116.051 129.041  1.00  0.00     0.028 A 
BRANCH   4   9
ATOM      9  N   UNL     1     130.151 113.905 130.983  1.00  0.00    -0.371 N 
ATOM     10  C   UNL     1     128.841 113.936 130.282  1.00  0.00     0.117 C 
ATOM     11  C   UNL     1     130.107 114.171 132.446  1.00  0.00     0.117 C 
ATOM     12  C   UNL     1     127.754 114.648 131.092  1.00  0.00     0.028 C 
ATOM     13  C   UNL     1     128.884 113.492 133.071  1.00  0.00     0.028 C 
ATOM     14  C   UNL     1     127.596 114.027 132.468  1.00  0.00    -0.026 C 
ATOM     15  C   UNL     1     126.314 113.284 132.787  1.00  0.00     0.008 C 
ATOM     16  C   UNL     1     126.559 114.632 133.394  1.00  0.00     0.008 C 
ENDBRANCH   4   9
BRANCH   5  17
ATOM     17  C   UNL     1     130.455 116.874 131.440  1.00  0.00     0.257 C 
ATOM     18  N   UNL     1     131.032 117.303 132.616  1.00  0.00    -0.322 N 
ATOM     19  O   UNL     1     129.314 117.128 131.065  1.00  0.00    -0.269 OA
ATOM     20  H   UNL     1     131.980 116.961 132.766  1.00  0.00     0.170 HD
BRANCH  18  21
ATOM     21  C   UNL     1     130.476 118.098 133.637  1.00  0.00     0.043 A 
ATOM     22  C   UNL     1     130.731 119.469 133.578  1.00  0.00     0.026 A 
ATOM     23  C   UNL     1     129.699 117.596 134.687  1.00  0.00     0.052 A 
ATOM     24  C   UNL     1     130.214 120.317 134.552  1.00  0.00     0.004 A 
ATOM     25  C   UNL     1     129.163 118.424 135.693  1.00  0.00     0.039 A 
ATOM     26  C   UNL     1     129.440 119.798 135.592  1.00  0.00     0.026 A 
BRANCH  25  27
ATOM     27  N   UNL     1     128.384 117.916 136.729  1.00  0.00    -0.371 N 
ATOM     28  C   UNL     1     127.997 118.770 137.859  1.00  0.00     0.122 C 
ATOM     29  C   UNL     1     127.797 116.575 136.629  1.00  0.00     0.122 C 
ATOM     30  C   UNL     1     127.720 117.906 139.077  1.00  0.00     0.098 C 
ATOM     31  C   UNL     1     126.447 116.547 137.323  1.00  0.00     0.098 C 
ATOM     32  C   UNL     1     126.604 116.927 138.779  1.00  0.00     0.251 C 
ATOM     33  F   UNL     1     125.422 117.441 139.219  1.00  0.00    -0.207 F 
ATOM     34  F   UNL     1     126.810 115.801 139.517  1.00  0.00    -0.207 F 
ENDBRANCH  25  27
ENDBRANCH  18  21
ENDBRANCH   5  17
ENDBRANCH   1   3
BRANCH   1  35
ATOM     35  S   UNL     1     135.152 112.911 128.638  1.00  0.00     0.234 S 
ATOM     36  O   UNL     1     136.041 112.590 127.541  1.00  0.00    -0.207 OA
ATOM     37  O   UNL     1     134.486 111.869 129.388  1.00  0.00    -0.207 OA
BRANCH  35  38
ATOM     38  C   UNL     1     136.048 113.955 129.771  1.00  0.00     0.188 C 
BRANCH  38  39
ATOM     39  C   UNL     1     136.698 113.115 130.848  1.00  0.00     0.174 C 
BRANCH  39  40
ATOM     40  O   UNL     1     137.355 112.009 130.235  1.00  0.00    -0.395 OA
ATOM     41  H   UNL     1     138.062 111.725 130.843  1.00  0.00     0.210 HD
ENDBRANCH  39  40
ENDBRANCH  38  39
ENDBRANCH  35  38
ENDBRANCH   1  35
TORSDOF 9
ENDMDL
MODEL 8
REMARK VINA RESULT:     -10.3      5.308     10.009
REMARK SMILES O=C(Nc1cccc(N2CCC(F)(F)CC2)c1)c1ccc(NS(=O)(=O)CCO)cc1N1CCC2(CC1)CC2
REMARK SMILES IDX 22 1 21 3 30 4 18 5 29 6 19 7 20 8 31 9 32 10 36 11 33 12
REMARK SMILES IDX 35 13 34 14 37 15 38 16 2 17 3 18 1 19 4 21 5 22 17 23 6 24
REMARK SMILES IDX 8 25 7 26 9 27 10 28 16 29 11 30 15 31 12 32 13 33 14 34
REMARK SMILES IDX 23 35 24 36 25 37 26 38 27 39 28 40
REMARK H PARENT 22 2 3 20 28 41
REMARK Flexibility Score: inf
ROOT
ATOM      1  N   UNL     1     127.325 118.410 137.495  1.00  0.00    -0.283 N 
ATOM      2  H   UNL     1     126.391 118.822 137.501  1.00  0.00     0.180 HD
ENDROOT
BRANCH   1   3
ATOM      3  C   UNL     1     128.094 118.533 136.303  1.00  0.00     0.051 A 
ATOM      4  C   UNL     1     128.829 117.540 134.186  1.00  0.00     0.052 A 
ATOM      5  C   UNL     1     129.629 118.688 133.949  1.00  0.00     0.063 A 
ATOM      6  C   UNL     1     128.070 117.489 135.375  1.00  0.00     0.053 A 
ATOM      7  C   UNL     1     129.636 119.731 134.895  1.00  0.00     0.018 A 
ATOM      8  C   UNL     1     128.873 119.656 136.061  1.00  0.00     0.028 A 
BRANCH   4   9
ATOM      9  N   UNL     1     128.831 116.437 133.291  1.00  0.00    -0.371 N 
ATOM     10  C   UNL     1     127.786 116.448 132.235  1.00  0.00     0.117 C 
ATOM     11  C   UNL     1     128.983 115.158 134.035  1.00  0.00     0.117 C 
ATOM     12  C   UNL     1     126.779 115.304 132.388  1.00  0.00     0.028 C 
ATOM     13  C   UNL     1     128.845 113.969 133.079  1.00  0.00     0.028 C 
ATOM     14  C   UNL     1     127.475 113.956 132.420  1.00  0.00    -0.026 C 
ATOM     15  C   UNL     1     127.267 113.002 131.261  1.00  0.00     0.008 C 
ATOM     16  C   UNL     1     126.607 112.723 132.577  1.00  0.00     0.008 C 
ENDBRANCH   4   9
BRANCH   5  17
ATOM     17  C   UNL     1     130.479 118.902 132.721  1.00  0.00     0.257 C 
ATOM     18  N   UNL     1     130.968 117.758 132.129  1.00  0.00    -0.322 N 
ATOM     19  O   UNL     1     130.663 120.050 132.327  1.00  0.00    -0.269 OA
ATOM     20  H   UNL     1     130.733 116.898 132.623  1.00  0.00     0.170 HD
BRANCH  18  21
ATOM     21  C   UNL     1     131.772 117.629 130.981  1.00  0.00     0.043 A 
ATOM     22  C   UNL     1     131.836 118.733 130.128  1.00  0.00     0.026 A 
ATOM     23  C   UNL     1     132.494 116.476 130.653  1.00  0.00     0.052 A 
ATOM     24  C   UNL     1     132.611 118.680 128.974  1.00  0.00     0.004 A 
ATOM     25  C   UNL     1     133.286 116.385 129.491  1.00  0.00     0.039 A 
ATOM     26  C   UNL     1     133.325 117.520 128.665  1.00  0.00     0.026 A 
BRANCH  25  27
ATOM     27  N   UNL     1     134.007 115.236 129.179  1.00  0.00    -0.371 N 
ATOM     28  C   UNL     1     135.273 114.939 129.862  1.00  0.00     0.122 C 
ATOM     29  C   UNL     1     133.435 114.218 128.288  1.00  0.00     0.122 C 
ATOM     30  C   UNL     1     136.131 114.050 128.979  1.00  0.00     0.098 C 
ATOM     31  C   UNL     1     133.894 112.837 128.718  1.00  0.00     0.098 C 
ATOM     32  C   UNL     1     135.405 112.755 128.680  1.00  0.00     0.251 C 
ATOM     33  F   UNL     1     135.806 111.798 129.561  1.00  0.00    -0.207 F 
ATOM     34  F   UNL     1     135.799 112.314 127.454  1.00  0.00    -0.207 F 
ENDBRANCH  25  27
ENDBRANCH  18  21
ENDBRANCH   5  17
ENDBRANCH   1   3
BRANCH   1  35
ATOM     35  S   UNL     1     127.401 116.990 138.399  1.00  0.00     0.234 S 
ATOM     36  O   UNL     1     126.220 116.238 138.031  1.00  0.00    -0.207 OA
ATOM     37  O   UNL     1     127.684 117.306 139.781  1.00  0.00    -0.207 OA
BRANCH  35  38
ATOM     38  C   UNL     1     128.812 116.158 137.696  1.00  0.00     0.188 C 
BRANCH  38  39
ATOM     39  C   UNL     1     130.071 116.557 138.435  1.00  0.00     0.174 C 
BRANCH  39  40
ATOM     40  O   UNL     1     130.025 117.956 138.700  1.00  0.00    -0.395 OA
ATOM     41  H   UNL     1     129.294 118.103 139.328  1.00  0.00     0.210 HD
ENDBRANCH  39  40
ENDBRANCH  38  39
ENDBRANCH  35  38
ENDBRANCH   1  35
TORSDOF 9
ENDMDL
MODEL 9
REMARK VINA RESULT:     -10.2      5.335     10.265
REMARK SMILES O=C(Nc1cccc(N2CCC(F)(F)CC2)c1)c1ccc(NS(=O)(=O)CCO)cc1N1CCC2(CC1)CC2
REMARK SMILES IDX 22 1 21 3 30 4 18 5 29 6 19 7 20 8 31 9 32 10 36 11 33 12
REMARK SMILES IDX 35 13 34 14 37 15 38 16 2 17 3 18 1 19 4 21 5 22 17 23 6 24
REMARK SMILES IDX 8 25 7 26 9 27 10 28 16 29 11 30 15 31 12 32 13 33 14 34
REMARK SMILES IDX 23 35 24 36 25 37 26 38 27 39 28 40
REMARK H PARENT 22 2 3 20 28 41
REMARK Flexibility Score: inf
ROOT
ATOM      1  N   UNL     1     127.718 118.746 137.666  1.00  0.00    -0.283 N 
ATOM      2  H   UNL     1     126.716 118.559 137.647  1.00  0.00     0.180 HD
ENDROOT
BRANCH   1   3
ATOM      3  C   UNL     1     128.404 118.798 136.419  1.00  0.00     0.051 A 
ATOM      4  C   UNL     1     129.002 117.679 134.321  1.00  0.00     0.052 A 
ATOM      5  C   UNL     1     129.775 118.814 133.960  1.00  0.00     0.063 A 
ATOM      6  C   UNL     1     128.326 117.699 135.560  1.00  0.00     0.053 A 
ATOM      7  C   UNL     1     129.837 119.914 134.838  1.00  0.00     0.018 A 
ATOM      8  C   UNL     1     129.156 119.907 136.056  1.00  0.00     0.028 A 
BRANCH   4   9
ATOM      9  N   UNL     1     128.952 116.524 133.497  1.00  0.00    -0.371 N 
ATOM     10  C   UNL     1     128.000 116.571 132.357  1.00  0.00     0.117 C 
ATOM     11  C   UNL     1     128.904 115.290 134.327  1.00  0.00     0.117 C 
ATOM     12  C   UNL     1     126.864 115.553 132.493  1.00  0.00     0.028 C 
ATOM     13  C   UNL     1     128.711 114.059 133.436  1.00  0.00     0.028 C 
ATOM     14  C   UNL     1     127.404 114.144 132.664  1.00  0.00    -0.026 C 
ATOM     15  C   UNL     1     127.183 113.140 131.552  1.00  0.00     0.008 C 
ATOM     16  C   UNL     1     126.395 113.023 132.821  1.00  0.00     0.008 C 
ENDBRANCH   4   9
BRANCH   5  17
ATOM     17  C   UNL     1     130.538 118.955 132.667  1.00  0.00     0.257 C 
ATOM     18  N   UNL     1     131.111 117.799 132.185  1.00  0.00    -0.322 N 
ATOM     19  O   UNL     1     130.585 120.058 132.131  1.00  0.00    -0.269 OA
ATOM     20  H   UNL     1     130.990 116.988 132.790  1.00  0.00     0.170 HD
BRANCH  18  21
ATOM     21  C   UNL     1     131.867 117.607 131.013  1.00  0.00     0.043 A 
ATOM     22  C   UNL     1     131.916 118.672 130.112  1.00  0.00     0.026 A 
ATOM     23  C   UNL     1     132.558 116.428 130.708  1.00  0.00     0.052 A 
ATOM     24  C   UNL     1     132.644 118.556 128.932  1.00  0.00     0.004 A 
ATOM     25  C   UNL     1     133.302 116.273 129.522  1.00  0.00     0.039 A 
ATOM     26  C   UNL     1     133.327 117.371 128.646  1.00  0.00     0.026 A 
BRANCH  25  27
ATOM     27  N   UNL     1     133.991 115.099 129.231  1.00  0.00    -0.371 N 
ATOM     28  C   UNL     1     133.545 114.221 128.142  1.00  0.00     0.122 C 
ATOM     29  C   UNL     1     135.269 114.805 129.892  1.00  0.00     0.122 C 
ATOM     30  C   UNL     1     134.022 112.803 128.406  1.00  0.00     0.098 C 
ATOM     31  C   UNL     1     136.185 114.060 128.939  1.00  0.00     0.098 C 
ATOM     32  C   UNL     1     135.533 112.769 128.493  1.00  0.00     0.251 C 
ATOM     33  F   UNL     1     136.048 112.422 127.282  1.00  0.00    -0.207 F 
ATOM     34  F   UNL     1     135.892 111.768 129.344  1.00  0.00    -0.207 F 
ENDBRANCH  25  27
ENDBRANCH  18  21
ENDBRANCH   5  17
ENDBRANCH   1   3
BRANCH   1  35
ATOM     35  S   UNL     1     128.471 118.059 139.008  1.00  0.00     0.234 S 
ATOM     36  O   UNL     1     127.577 118.310 140.119  1.00  0.00    -0.207 OA
ATOM     37  O   UNL     1     129.856 118.472 139.056  1.00  0.00    -0.207 OA
BRANCH  35  38
ATOM     38  C   UNL     1     128.402 116.316 138.642  1.00  0.00     0.188 C 
BRANCH  38  39
ATOM     39  C   UNL     1     127.009 115.936 138.190  1.00  0.00     0.174 C 
BRANCH  39  40
ATOM     40  O   UNL     1     126.073 116.836 138.776  1.00  0.00    -0.395 OA
ATOM     41  H   UNL     1     125.598 116.342 139.469  1.00  0.00     0.210 HD
ENDBRANCH  39  40
ENDBRANCH  38  39
ENDBRANCH  35  38
ENDBRANCH   1  35
TORSDOF 9
ENDMDL
