MODEL 1
REMARK VINA RESULT:     -13.5      0.000      0.000
REMARK SMILES Cc1cc(Nc2ncnc3cc(NS(=O)(=O)CCO)cc(N4CCC5(CC4)CC5)c23)cc(N2CCC(F)(F)CC2)c1
REMARK SMILES IDX 13 1 12 3 30 4 10 5 21 6 6 7 11 8 9 9 20 10 7 11 8 12 22 13
REMARK SMILES IDX 23 14 27 15 24 16 26 17 25 18 28 19 29 20 5 21 4 23 3 24
REMARK SMILES IDX 31 25 2 26 32 27 41 28 1 29 33 30 34 31 40 32 35 33 39 34
REMARK SMILES IDX 36 35 37 36 38 37 14 38 15 39 16 40 17 41 18 42 19 43
REMARK H PARENT 13 2 5 22 19 44
REMARK Flexibility Score: inf
ROOT
ATOM      1  N   UNL     1     133.622 113.598 128.761  1.00  0.00    -0.283 N 
ATOM      2  H   UNL     1     132.982 112.833 128.535  1.00  0.00     0.180 HD
ENDROOT
BRANCH   1   3
ATOM      3  C   UNL     1     133.004 114.767 129.299  1.00  0.00     0.053 A 
ATOM      4  C   UNL     1     131.905 117.093 130.437  1.00  0.00     0.067 A 
ATOM      5  C   UNL     1     133.052 117.166 129.626  1.00  0.00     0.080 A 
ATOM      6  C   UNL     1     131.300 115.803 130.669  1.00  0.00     0.052 A 
ATOM      7  C   UNL     1     131.468 118.350 130.937  1.00  0.00     0.143 A 
ATOM      8  C   UNL     1     133.586 116.009 129.080  1.00  0.00     0.056 A 
ATOM      9  N   UNL     1     133.685 118.303 129.335  1.00  0.00    -0.236 NA
ATOM     10  C   UNL     1     131.873 114.658 130.094  1.00  0.00     0.053 A 
ATOM     11  N   UNL     1     132.105 119.502 130.642  1.00  0.00    -0.219 NA
ATOM     12  C   UNL     1     133.176 119.421 129.858  1.00  0.00     0.224 A 
BRANCH   6  13
ATOM     13  N   UNL     1     130.149 115.699 131.512  1.00  0.00    -0.371 N 
ATOM     14  C   UNL     1     128.866 115.789 130.769  1.00  0.00     0.117 C 
ATOM     15  C   UNL     1     130.232 114.465 132.344  1.00  0.00     0.117 C 
ATOM     16  C   UNL     1     127.701 115.834 131.765  1.00  0.00     0.028 C 
ATOM     17  C   UNL     1     129.098 114.464 133.378  1.00  0.00     0.028 C 
ATOM     18  C   UNL     1     127.750 114.643 132.703  1.00  0.00    -0.026 C 
ATOM     19  C   UNL     1     126.932 113.414 132.368  1.00  0.00     0.008 C 
ATOM     20  C   UNL     1     126.508 114.310 133.498  1.00  0.00     0.008 C 
ENDBRANCH   6  13
BRANCH   7  21
ATOM     21  N   UNL     1     130.334 118.390 131.779  1.00  0.00    -0.339 N 
ATOM     22  H   UNL     1     129.492 118.147 131.253  1.00  0.00     0.168 HD
BRANCH  21  23
ATOM     23  C   UNL     1     130.130 118.757 133.119  1.00  0.00     0.042 A 
ATOM     24  C   UNL     1     130.713 119.942 133.583  1.00  0.00     0.029 A 
ATOM     25  C   UNL     1     129.386 117.997 134.032  1.00  0.00     0.052 A 
ATOM     26  C   UNL     1     130.551 120.365 134.904  1.00  0.00    -0.047 A 
ATOM     27  C   UNL     1     129.205 118.370 135.379  1.00  0.00     0.039 A 
ATOM     28  C   UNL     1     129.810 119.568 135.787  1.00  0.00     0.029 A 
ATOM     29  C   UNL     1     131.218 121.618 135.389  1.00  0.00     0.044 C 
BRANCH  27  30
ATOM     30  N   UNL     1     128.468 117.588 136.264  1.00  0.00    -0.371 N 
ATOM     31  C   UNL     1     127.415 118.191 137.089  1.00  0.00     0.122 C 
ATOM     32  C   UNL     1     128.784 116.169 136.451  1.00  0.00     0.122 C 
ATOM     33  C   UNL     1     126.367 117.145 137.424  1.00  0.00     0.098 C 
ATOM     34  C   UNL     1     128.468 115.754 137.876  1.00  0.00     0.098 C 
ATOM     35  C   UNL     1     127.003 115.994 138.176  1.00  0.00     0.251 C 
ATOM     36  F   UNL     1     126.866 116.199 139.515  1.00  0.00    -0.207 F 
ATOM     37  F   UNL     1     126.298 114.860 137.904  1.00  0.00    -0.207 F 
ENDBRANCH  27  30
ENDBRANCH  21  23
ENDBRANCH   7  21
ENDBRANCH   1   3
BRANCH   1  38
ATOM     38  S   UNL     1     134.941 112.964 129.619  1.00  0.00     0.234 S 
ATOM     39  O   UNL     1     135.489 113.977 130.492  1.00  0.00    -0.207 OA
ATOM     40  O   UNL     1     134.469 111.699 130.143  1.00  0.00    -0.207 OA
BRANCH  38  41
ATOM     41  C   UNL     1     136.087 112.614 128.303  1.00  0.00     0.188 C 
BRANCH  41  42
ATOM     42  C   UNL     1     137.495 112.525 128.850  1.00  0.00     0.174 C 
BRANCH  42  43
ATOM     43  O   UNL     1     137.459 112.124 130.218  1.00  0.00    -0.395 OA
ATOM     44  H   UNL     1     137.117 111.214 130.256  1.00  0.00     0.210 HD
ENDBRANCH  42  43
ENDBRANCH  41  42
ENDBRANCH  38  41
ENDBRANCH   1  38
TORSDOF 9
ENDMDL
MODEL 2
REMARK VINA RESULT:     -13.2      0.755      1.249
REMARK SMILES Cc1cc(Nc2ncnc3cc(NS(=O)(=O)CCO)cc(N4CCC5(CC4)CC5)c23)cc(N2CCC(F)(F)CC2)c1
REMARK SMILES IDX 13 1 12 3 30 4 10 5 21 6 6 7 11 8 9 9 20 10 7 11 8 12 22 13
REMARK SMILES IDX 23 14 27 15 24 16 26 17 25 18 28 19 29 20 5 21 4 23 3 24
REMARK SMILES IDX 31 25 2 26 32 27 41 28 1 29 33 30 34 31 40 32 35 33 39 34
REMARK SMILES IDX 36 35 37 36 38 37 14 38 15 39 16 40 17 41 18 42 19 43
REMARK H PARENT 13 2 5 22 19 44
REMARK Flexibility Score: inf
ROOT
ATOM      1  N   UNL     1     133.677 114.004 128.185  1.00  0.00    -0.283 N 
ATOM      2  H   UNL     1     133.057 113.498 127.549  1.00  0.00     0.180 HD
ENDROOT
BRANCH   1   3
ATOM      3  C   UNL     1     133.070 115.089 128.888  1.00  0.00     0.053 A 
ATOM      4  C   UNL     1     131.996 117.237 130.352  1.00  0.00     0.067 A 
ATOM      5  C   UNL     1     133.126 117.421 129.535  1.00  0.00     0.080 A 
ATOM      6  C   UNL     1     131.396 115.926 130.421  1.00  0.00     0.052 A 
ATOM      7  C   UNL     1     131.570 118.414 131.026  1.00  0.00     0.143 A 
ATOM      8  C   UNL     1     133.648 116.351 128.828  1.00  0.00     0.056 A 
ATOM      9  N   UNL     1     133.753 118.589 129.387  1.00  0.00    -0.236 NA
ATOM     10  C   UNL     1     131.956 114.870 129.684  1.00  0.00     0.053 A 
ATOM     11  N   UNL     1     132.200 119.597 130.876  1.00  0.00    -0.219 NA
ATOM     12  C   UNL     1     133.256 119.625 130.066  1.00  0.00     0.224 A 
BRANCH   6  13
ATOM     13  N   UNL     1     130.262 115.706 131.264  1.00  0.00    -0.371 N 
ATOM     14  C   UNL     1     128.967 115.777 130.541  1.00  0.00     0.117 C 
ATOM     15  C   UNL     1     130.419 114.427 132.012  1.00  0.00     0.117 C 
ATOM     16  C   UNL     1     127.813 115.696 131.548  1.00  0.00     0.028 C 
ATOM     17  C   UNL     1     129.300 114.298 133.054  1.00  0.00     0.028 C 
ATOM     18  C   UNL     1     127.936 114.450 132.404  1.00  0.00    -0.026 C 
ATOM     19  C   UNL     1     127.179 113.205 131.996  1.00  0.00     0.008 C 
ATOM     20  C   UNL     1     126.722 114.000 133.187  1.00  0.00     0.008 C 
ENDBRANCH   6  13
BRANCH   7  21
ATOM     21  N   UNL     1     130.453 118.337 131.889  1.00  0.00    -0.339 N 
ATOM     22  H   UNL     1     129.633 118.000 131.379  1.00  0.00     0.168 HD
BRANCH  21  23
ATOM     23  C   UNL     1     130.234 118.690 133.229  1.00  0.00     0.042 A 
ATOM     24  C   UNL     1     130.814 119.869 133.713  1.00  0.00     0.029 A 
ATOM     25  C   UNL     1     129.478 117.923 134.126  1.00  0.00     0.052 A 
ATOM     26  C   UNL     1     130.637 120.279 135.037  1.00  0.00    -0.047 A 
ATOM     27  C   UNL     1     129.282 118.282 135.475  1.00  0.00     0.039 A 
ATOM     28  C   UNL     1     129.884 119.475 135.903  1.00  0.00     0.029 A 
ATOM     29  C   UNL     1     131.300 121.525 135.543  1.00  0.00     0.044 C 
BRANCH  27  30
ATOM     30  N   UNL     1     128.533 117.492 136.343  1.00  0.00    -0.371 N 
ATOM     31  C   UNL     1     128.732 116.039 136.384  1.00  0.00     0.122 C 
ATOM     32  C   UNL     1     127.477 118.083 137.170  1.00  0.00     0.122 C 
ATOM     33  C   UNL     1     128.362 115.512 137.759  1.00  0.00     0.098 C 
ATOM     34  C   UNL     1     126.367 117.072 137.388  1.00  0.00     0.098 C 
ATOM     35  C   UNL     1     126.915 115.835 138.068  1.00  0.00     0.251 C 
ATOM     36  F   UNL     1     126.134 114.774 137.726  1.00  0.00    -0.207 F 
ATOM     37  F   UNL     1     126.782 115.969 139.417  1.00  0.00    -0.207 F 
ENDBRANCH  27  30
ENDBRANCH  21  23
ENDBRANCH   7  21
ENDBRANCH   1   3
BRANCH   1  38
ATOM     38  S   UNL     1     134.537 112.875 129.113  1.00  0.00     0.234 S 
ATOM     39  O   UNL     1     133.620 112.111 129.928  1.00  0.00    -0.207 OA
ATOM     40  O   UNL     1     135.426 112.222 128.174  1.00  0.00    -0.207 OA
BRANCH  38  41
ATOM     41  C   UNL     1     135.523 113.939 130.146  1.00  0.00     0.188 C 
BRANCH  41  42
ATOM     42  C   UNL     1     136.302 113.114 131.146  1.00  0.00     0.174 C 
BRANCH  42  43
ATOM     43  O   UNL     1     137.325 112.379 130.478  1.00  0.00    -0.395 OA
ATOM     44  H   UNL     1     137.862 113.009 129.967  1.00  0.00     0.210 HD
ENDBRANCH  42  43
ENDBRANCH  41  42
ENDBRANCH  38  41
ENDBRANCH   1  38
TORSDOF 9
ENDMDL
MODEL 3
REMARK VINA RESULT:     -12.2      1.061      1.555
REMARK SMILES Cc1cc(Nc2ncnc3cc(NS(=O)(=O)CCO)cc(N4CCC5(CC4)CC5)c23)cc(N2CCC(F)(F)CC2)c1
REMARK SMILES IDX 13 1 12 3 30 4 10 5 21 6 6 7 11 8 9 9 20 10 7 11 8 12 22 13
REMARK SMILES IDX 23 14 27 15 24 16 26 17 25 18 28 19 29 20 5 21 4 23 3 24
REMARK SMILES IDX 31 25 2 26 32 27 41 28 1 29 33 30 34 31 40 32 35 33 39 34
REMARK SMILES IDX 36 35 37 36 38 37 14 38 15 39 16 40 17 41 18 42 19 43
REMARK H PARENT 13 2 5 22 19 44
REMARK Flexibility Score: inf
ROOT
ATOM      1  N   UNL     1     133.192 113.107 129.322  1.00  0.00    -0.283 N 
ATOM      2  H   UNL     1     134.015 112.773 129.828  1.00  0.00     0.180 HD
ENDROOT
BRANCH   1   3
ATOM      3  C   UNL     1     132.701 114.382 129.738  1.00  0.00     0.053 A 
ATOM      4  C   UNL     1     131.855 116.910 130.633  1.00  0.00     0.067 A 
ATOM      5  C   UNL     1     133.005 116.782 129.833  1.00  0.00     0.080 A 
ATOM      6  C   UNL     1     131.116 115.721 130.982  1.00  0.00     0.052 A 
ATOM      7  C   UNL     1     131.554 118.249 131.005  1.00  0.00     0.143 A 
ATOM      8  C   UNL     1     133.413 115.528 129.408  1.00  0.00     0.056 A 
ATOM      9  N   UNL     1     133.756 117.813 129.442  1.00  0.00    -0.236 NA
ATOM     10  C   UNL     1     131.563 114.471 130.526  1.00  0.00     0.053 A 
ATOM     11  N   UNL     1     132.311 119.294 130.609  1.00  0.00    -0.219 NA
ATOM     12  C   UNL     1     133.369 119.023 129.849  1.00  0.00     0.224 A 
BRANCH   6  13
ATOM     13  N   UNL     1     129.958 115.821 131.816  1.00  0.00    -0.371 N 
ATOM     14  C   UNL     1     128.688 115.920 131.053  1.00  0.00     0.117 C 
ATOM     15  C   UNL     1     129.937 114.703 132.801  1.00  0.00     0.117 C 
ATOM     16  C   UNL     1     127.529 116.190 132.020  1.00  0.00     0.028 C 
ATOM     17  C   UNL     1     128.805 114.929 133.812  1.00  0.00     0.028 C 
ATOM     18  C   UNL     1     127.478 115.130 133.103  1.00  0.00    -0.026 C 
ATOM     19  C   UNL     1     126.561 113.940 132.919  1.00  0.00     0.008 C 
ATOM     20  C   UNL     1     126.211 115.006 133.920  1.00  0.00     0.008 C 
ENDBRANCH   6  13
BRANCH   7  21
ATOM     21  N   UNL     1     130.429 118.491 131.826  1.00  0.00    -0.339 N 
ATOM     22  H   UNL     1     129.567 118.382 131.288  1.00  0.00     0.168 HD
BRANCH  21  23
ATOM     23  C   UNL     1     130.268 118.910 133.156  1.00  0.00     0.042 A 
ATOM     24  C   UNL     1     130.850 120.120 133.551  1.00  0.00     0.029 A 
ATOM     25  C   UNL     1     129.568 118.178 134.126  1.00  0.00     0.052 A 
ATOM     26  C   UNL     1     130.729 120.595 134.859  1.00  0.00    -0.047 A 
ATOM     27  C   UNL     1     129.430 118.603 135.462  1.00  0.00     0.039 A 
ATOM     28  C   UNL     1     130.032 119.825 135.800  1.00  0.00     0.029 A 
ATOM     29  C   UNL     1     131.394 121.875 135.268  1.00  0.00     0.044 C 
BRANCH  27  30
ATOM     30  N   UNL     1     128.737 117.849 136.405  1.00  0.00    -0.371 N 
ATOM     31  C   UNL     1     129.143 116.469 136.697  1.00  0.00     0.122 C 
ATOM     32  C   UNL     1     127.541 118.385 137.061  1.00  0.00     0.122 C 
ATOM     33  C   UNL     1     128.743 116.109 138.116  1.00  0.00     0.098 C 
ATOM     34  C   UNL     1     126.577 117.257 137.378  1.00  0.00     0.098 C 
ATOM     35  C   UNL     1     127.244 116.242 138.284  1.00  0.00     0.251 C 
ATOM     36  F   UNL     1     126.657 115.031 138.077  1.00  0.00    -0.207 F 
ATOM     37  F   UNL     1     126.981 116.559 139.582  1.00  0.00    -0.207 F 
ENDBRANCH  27  30
ENDBRANCH  21  23
ENDBRANCH   7  21
ENDBRANCH   1   3
BRANCH   1  38
ATOM     38  S   UNL     1     133.455 112.891 127.660  1.00  0.00     0.234 S 
ATOM     39  O   UNL     1     132.718 111.738 127.195  1.00  0.00    -0.207 OA
ATOM     40  O   UNL     1     133.244 114.200 127.078  1.00  0.00    -0.207 OA
BRANCH  38  41
ATOM     41  C   UNL     1     135.202 112.551 127.617  1.00  0.00     0.188 C 
BRANCH  41  42
ATOM     42  C   UNL     1     135.768 112.565 129.020  1.00  0.00     0.174 C 
BRANCH  42  43
ATOM     43  O   UNL     1     136.252 113.869 129.335  1.00  0.00    -0.395 OA
ATOM     44  H   UNL     1     136.840 114.153 128.614  1.00  0.00     0.210 HD
ENDBRANCH  42  43
ENDBRANCH  41  42
ENDBRANCH  38  41
ENDBRANCH   1  38
TORSDOF 9
ENDMDL
MODEL 4
REMARK VINA RESULT:     -11.8      0.995      1.632
REMARK SMILES Cc1cc(Nc2ncnc3cc(NS(=O)(=O)CCO)cc(N4CCC5(CC4)CC5)c23)cc(N2CCC(F)(F)CC2)c1
REMARK SMILES IDX 13 1 12 3 30 4 10 5 21 6 6 7 11 8 9 9 20 10 7 11 8 12 22 13
REMARK SMILES IDX 23 14 27 15 24 16 26 17 25 18 28 19 29 20 5 21 4 23 3 24
REMARK SMILES IDX 31 25 2 26 32 27 41 28 1 29 33 30 34 31 40 32 35 33 39 34
REMARK SMILES IDX 36 35 37 36 38 37 14 38 15 39 16 40 17 41 18 42 19 43
REMARK H PARENT 13 2 5 22 19 44
REMARK Flexibility Score: inf
ROOT
ATOM      1  N   UNL     1     133.188 112.955 129.484  1.00  0.00    -0.283 N 
ATOM      2  H   UNL     1     132.966 112.207 130.145  1.00  0.00     0.180 HD
ENDROOT
BRANCH   1   3
ATOM      3  C   UNL     1     132.694 114.246 129.841  1.00  0.00     0.053 A 
ATOM      4  C   UNL     1     131.843 116.812 130.619  1.00  0.00     0.067 A 
ATOM      5  C   UNL     1     132.980 116.650 129.805  1.00  0.00     0.080 A 
ATOM      6  C   UNL     1     131.120 115.637 131.042  1.00  0.00     0.052 A 
ATOM      7  C   UNL     1     131.538 118.166 130.926  1.00  0.00     0.143 A 
ATOM      8  C   UNL     1     133.390 115.379 129.439  1.00  0.00     0.056 A 
ATOM      9  N   UNL     1     133.715 117.664 129.347  1.00  0.00    -0.236 NA
ATOM     10  C   UNL     1     131.570 114.368 130.644  1.00  0.00     0.053 A 
ATOM     11  N   UNL     1     132.279 119.194 130.461  1.00  0.00    -0.219 NA
ATOM     12  C   UNL     1     133.325 118.892 129.697  1.00  0.00     0.224 A 
BRANCH   6  13
ATOM     13  N   UNL     1     129.977 115.772 131.892  1.00  0.00    -0.371 N 
ATOM     14  C   UNL     1     128.703 115.923 131.144  1.00  0.00     0.117 C 
ATOM     15  C   UNL     1     129.928 114.648 132.868  1.00  0.00     0.117 C 
ATOM     16  C   UNL     1     127.566 116.226 132.127  1.00  0.00     0.028 C 
ATOM     17  C   UNL     1     128.817 114.906 133.895  1.00  0.00     0.028 C 
ATOM     18  C   UNL     1     127.489 115.160 133.204  1.00  0.00    -0.026 C 
ATOM     19  C   UNL     1     126.528 114.005 133.022  1.00  0.00     0.008 C 
ATOM     20  C   UNL     1     126.228 115.075 134.034  1.00  0.00     0.008 C 
ENDBRANCH   6  13
BRANCH   7  21
ATOM     21  N   UNL     1     130.426 118.442 131.753  1.00  0.00    -0.339 N 
ATOM     22  H   UNL     1     129.556 118.313 131.233  1.00  0.00     0.168 HD
BRANCH  21  23
ATOM     23  C   UNL     1     130.285 118.913 133.068  1.00  0.00     0.042 A 
ATOM     24  C   UNL     1     130.855 120.148 133.400  1.00  0.00     0.029 A 
ATOM     25  C   UNL     1     129.619 118.211 134.082  1.00  0.00     0.052 A 
ATOM     26  C   UNL     1     130.753 120.675 134.689  1.00  0.00    -0.047 A 
ATOM     27  C   UNL     1     129.502 118.690 135.402  1.00  0.00     0.039 A 
ATOM     28  C   UNL     1     130.089 119.934 135.676  1.00  0.00     0.029 A 
ATOM     29  C   UNL     1     131.405 121.982 135.031  1.00  0.00     0.044 C 
BRANCH  27  30
ATOM     30  N   UNL     1     128.841 117.964 136.390  1.00  0.00    -0.371 N 
ATOM     31  C   UNL     1     129.249 116.589 136.700  1.00  0.00     0.122 C 
ATOM     32  C   UNL     1     127.676 118.526 137.079  1.00  0.00     0.122 C 
ATOM     33  C   UNL     1     128.904 116.267 138.143  1.00  0.00     0.098 C 
ATOM     34  C   UNL     1     126.718 117.413 137.462  1.00  0.00     0.098 C 
ATOM     35  C   UNL     1     127.413 116.416 138.366  1.00  0.00     0.251 C 
ATOM     36  F   UNL     1     126.812 115.204 138.213  1.00  0.00    -0.207 F 
ATOM     37  F   UNL     1     127.205 116.767 139.665  1.00  0.00    -0.207 F 
ENDBRANCH  27  30
ENDBRANCH  21  23
ENDBRANCH   7  21
ENDBRANCH   1   3
BRANCH   1  38
ATOM     38  S   UNL     1     134.832 112.848 129.079  1.00  0.00     0.234 S 
ATOM     39  O   UNL     1     135.478 114.118 129.318  1.00  0.00    -0.207 OA
ATOM     40  O   UNL     1     135.295 111.638 129.726  1.00  0.00    -0.207 OA
BRANCH  38  41
ATOM     41  C   UNL     1     134.748 112.531 127.329  1.00  0.00     0.188 C 
BRANCH  41  42
ATOM     42  C   UNL     1     133.363 112.851 126.809  1.00  0.00     0.174 C 
BRANCH  42  43
ATOM     43  O   UNL     1     132.495 111.741 127.026  1.00  0.00    -0.395 OA
ATOM     44  H   UNL     1     132.283 111.352 126.159  1.00  0.00     0.210 HD
ENDBRANCH  42  43
ENDBRANCH  41  42
ENDBRANCH  38  41
ENDBRANCH   1  38
TORSDOF 9
ENDMDL
MODEL 5
REMARK VINA RESULT:     -11.8      1.393      1.848
REMARK SMILES Cc1cc(Nc2ncnc3cc(NS(=O)(=O)CCO)cc(N4CCC5(CC4)CC5)c23)cc(N2CCC(F)(F)CC2)c1
REMARK SMILES IDX 13 1 12 3 30 4 10 5 21 6 6 7 11 8 9 9 20 10 7 11 8 12 22 13
REMARK SMILES IDX 23 14 27 15 24 16 26 17 25 18 28 19 29 20 5 21 4 23 3 24
REMARK SMILES IDX 31 25 2 26 32 27 41 28 1 29 33 30 34 31 40 32 35 33 39 34
REMARK SMILES IDX 36 35 37 36 38 37 14 38 15 39 16 40 17 41 18 42 19 43
REMARK H PARENT 13 2 5 22 19 44
REMARK Flexibility Score: inf
ROOT
ATOM      1  N   UNL     1     134.344 114.279 128.626  1.00  0.00    -0.283 N 
ATOM      2  H   UNL     1     134.985 114.569 127.884  1.00  0.00     0.180 HD
ENDROOT
BRANCH   1   3
ATOM      3  C   UNL     1     133.553 115.326 129.189  1.00  0.00     0.053 A 
ATOM      4  C   UNL     1     132.109 117.427 130.376  1.00  0.00     0.067 A 
ATOM      5  C   UNL     1     133.237 117.694 129.580  1.00  0.00     0.080 A 
ATOM      6  C   UNL     1     131.704 116.055 130.568  1.00  0.00     0.052 A 
ATOM      7  C   UNL     1     131.484 118.590 130.906  1.00  0.00     0.143 A 
ATOM      8  C   UNL     1     133.942 116.647 129.010  1.00  0.00     0.056 A 
ATOM      9  N   UNL     1     133.692 118.922 129.326  1.00  0.00    -0.236 NA
ATOM     10  C   UNL     1     132.446 115.025 129.969  1.00  0.00     0.053 A 
ATOM     11  N   UNL     1     131.941 119.832 130.648  1.00  0.00    -0.219 NA
ATOM     12  C   UNL     1     133.018 119.935 129.873  1.00  0.00     0.224 A 
BRANCH   6  13
ATOM     13  N   UNL     1     130.576 115.755 131.395  1.00  0.00    -0.371 N 
ATOM     14  C   UNL     1     129.276 115.895 130.692  1.00  0.00     0.117 C 
ATOM     15  C   UNL     1     130.738 114.409 132.015  1.00  0.00     0.117 C 
ATOM     16  C   UNL     1     128.130 115.717 131.695  1.00  0.00     0.028 C 
ATOM     17  C   UNL     1     129.626 114.181 133.048  1.00  0.00     0.028 C 
ATOM     18  C   UNL     1     128.258 114.395 132.426  1.00  0.00    -0.026 C 
ATOM     19  C   UNL     1     127.496 113.194 131.905  1.00  0.00     0.008 C 
ATOM     20  C   UNL     1     127.050 113.872 133.171  1.00  0.00     0.008 C 
ENDBRANCH   6  13
BRANCH   7  21
ATOM     21  N   UNL     1     130.351 118.434 131.737  1.00  0.00    -0.339 N 
ATOM     22  H   UNL     1     129.564 118.068 131.198  1.00  0.00     0.168 HD
BRANCH  21  23
ATOM     23  C   UNL     1     130.080 118.743 133.079  1.00  0.00     0.042 A 
ATOM     24  C   UNL     1     130.624 119.916 133.617  1.00  0.00     0.029 A 
ATOM     25  C   UNL     1     129.307 117.937 133.925  1.00  0.00     0.052 A 
ATOM     26  C   UNL     1     130.395 120.283 134.945  1.00  0.00    -0.047 A 
ATOM     27  C   UNL     1     129.059 118.252 135.276  1.00  0.00     0.039 A 
ATOM     28  C   UNL     1     129.626 119.441 135.760  1.00  0.00     0.029 A 
ATOM     29  C   UNL     1     131.019 121.523 135.511  1.00  0.00     0.044 C 
BRANCH  27  30
ATOM     30  N   UNL     1     128.294 117.425 136.094  1.00  0.00    -0.371 N 
ATOM     31  C   UNL     1     127.371 118.000 137.079  1.00  0.00     0.122 C 
ATOM     32  C   UNL     1     128.456 115.969 136.047  1.00  0.00     0.122 C 
ATOM     33  C   UNL     1     126.234 117.030 137.341  1.00  0.00     0.098 C 
ATOM     34  C   UNL     1     128.185 115.376 137.417  1.00  0.00     0.098 C 
ATOM     35  C   UNL     1     126.779 115.718 137.864  1.00  0.00     0.251 C 
ATOM     36  F   UNL     1     126.751 115.729 139.225  1.00  0.00    -0.207 F 
ATOM     37  F   UNL     1     125.933 114.719 137.488  1.00  0.00    -0.207 F 
ENDBRANCH  27  30
ENDBRANCH  21  23
ENDBRANCH   7  21
ENDBRANCH   1   3
BRANCH   1  38
ATOM     38  S   UNL     1     133.521 112.886 128.115  1.00  0.00     0.234 S 
ATOM     39  O   UNL     1     134.089 112.411 126.874  1.00  0.00    -0.207 OA
ATOM     40  O   UNL     1     133.464 112.037 129.286  1.00  0.00    -0.207 OA
BRANCH  38  41
ATOM     41  C   UNL     1     131.885 113.526 127.826  1.00  0.00     0.188 C 
BRANCH  41  42
ATOM     42  C   UNL     1     131.051 112.504 127.084  1.00  0.00     0.174 C 
BRANCH  42  43
ATOM     43  O   UNL     1     131.835 111.344 126.811  1.00  0.00    -0.395 OA
ATOM     44  H   UNL     1     131.375 110.575 127.188  1.00  0.00     0.210 HD
ENDBRANCH  42  43
ENDBRANCH  41  42
ENDBRANCH  38  41
ENDBRANCH   1  38
TORSDOF 9
ENDMDL
MODEL 6
REMARK VINA RESULT:     -11.5      1.548      1.970
REMARK SMILES Cc1cc(Nc2ncnc3cc(NS(=O)(=O)CCO)cc(N4CCC5(CC4)CC5)c23)cc(N2CCC(F)(F)CC2)c1
REMARK SMILES IDX 13 1 12 3 30 4 10 5 21 6 6 7 11 8 9 9 20 10 7 11 8 12 22 13
REMARK SMILES IDX 23 14 27 15 24 16 26 17 25 18 28 19 29 20 5 21 4 23 3 24
REMARK SMILES IDX 31 25 2 26 32 27 41 28 1 29 33 30 34 31 40 32 35 33 39 34
REMARK SMILES IDX 36 35 37 36 38 37 14 38 15 39 16 40 17 41 18 42 19 43
REMARK H PARENT 13 2 5 22 19 44
REMARK Flexibility Score: inf
ROOT
ATOM      1  N   UNL     1     133.421 113.176 128.997  1.00  0.00    -0.283 N 
ATOM      2  H   UNL     1     134.264 112.844 129.472  1.00  0.00     0.180 HD
ENDROOT
BRANCH   1   3
ATOM      3  C   UNL     1     132.901 114.415 129.479  1.00  0.00     0.053 A 
ATOM      4  C   UNL     1     131.997 116.870 130.511  1.00  0.00     0.067 A 
ATOM      5  C   UNL     1     133.174 116.807 129.743  1.00  0.00     0.080 A 
ATOM      6  C   UNL     1     131.261 115.653 130.755  1.00  0.00     0.052 A 
ATOM      7  C   UNL     1     131.669 118.179 130.961  1.00  0.00     0.143 A 
ATOM      8  C   UNL     1     133.610 115.588 129.250  1.00  0.00     0.056 A 
ATOM      9  N   UNL     1     133.924 117.868 129.446  1.00  0.00    -0.236 NA
ATOM     10  C   UNL     1     131.738 114.440 130.233  1.00  0.00     0.053 A 
ATOM     11  N   UNL     1     132.425 119.254 130.659  1.00  0.00    -0.219 NA
ATOM     12  C   UNL     1     133.510 119.045 129.919  1.00  0.00     0.224 A 
BRANCH   6  13
ATOM     13  N   UNL     1     130.076 115.687 131.556  1.00  0.00    -0.371 N 
ATOM     14  C   UNL     1     128.826 115.726 130.756  1.00  0.00     0.117 C 
ATOM     15  C   UNL     1     130.084 114.561 132.532  1.00  0.00     0.117 C 
ATOM     16  C   UNL     1     127.626 115.927 131.690  1.00  0.00     0.028 C 
ATOM     17  C   UNL     1     128.913 114.719 133.511  1.00  0.00     0.028 C 
ATOM     18  C   UNL     1     127.598 114.858 132.764  1.00  0.00    -0.026 C 
ATOM     19  C   UNL     1     126.750 113.623 132.545  1.00  0.00     0.008 C 
ATOM     20  C   UNL     1     126.316 114.661 133.542  1.00  0.00     0.008 C 
ENDBRANCH   6  13
BRANCH   7  21
ATOM     21  N   UNL     1     130.514 118.354 131.758  1.00  0.00    -0.339 N 
ATOM     22  H   UNL     1     129.672 118.194 131.202  1.00  0.00     0.168 HD
BRANCH  21  23
ATOM     23  C   UNL     1     130.301 118.763 133.083  1.00  0.00     0.042 A 
ATOM     24  C   UNL     1     130.863 119.974 133.507  1.00  0.00     0.029 A 
ATOM     25  C   UNL     1     129.570 118.023 134.022  1.00  0.00     0.052 A 
ATOM     26  C   UNL     1     130.691 120.440 134.813  1.00  0.00    -0.047 A 
ATOM     27  C   UNL     1     129.379 118.439 135.355  1.00  0.00     0.039 A 
ATOM     28  C   UNL     1     129.963 119.661 135.722  1.00  0.00     0.029 A 
ATOM     29  C   UNL     1     131.335 121.720 135.255  1.00  0.00     0.044 C 
BRANCH  27  30
ATOM     30  N   UNL     1     128.655 117.675 136.265  1.00  0.00    -0.371 N 
ATOM     31  C   UNL     1     127.512 118.255 136.979  1.00  0.00     0.122 C 
ATOM     32  C   UNL     1     129.068 116.307 136.591  1.00  0.00     0.122 C 
ATOM     33  C   UNL     1     126.530 117.158 137.350  1.00  0.00     0.098 C 
ATOM     34  C   UNL     1     128.702 115.987 138.029  1.00  0.00     0.098 C 
ATOM     35  C   UNL     1     127.208 116.129 138.230  1.00  0.00     0.251 C 
ATOM     36  F   UNL     1     126.977 116.433 139.537  1.00  0.00    -0.207 F 
ATOM     37  F   UNL     1     126.611 114.923 138.023  1.00  0.00    -0.207 F 
ENDBRANCH  27  30
ENDBRANCH  21  23
ENDBRANCH   7  21
ENDBRANCH   1   3
BRANCH   1  38
ATOM     38  S   UNL     1     133.655 113.042 127.322  1.00  0.00     0.234 S 
ATOM     39  O   UNL     1     133.280 114.279 126.676  1.00  0.00    -0.207 OA
ATOM     40  O   UNL     1     134.989 112.496 127.177  1.00  0.00    -0.207 OA
BRANCH  38  41
ATOM     41  C   UNL     1     132.493 111.761 126.901  1.00  0.00     0.188 C 
BRANCH  41  42
ATOM     42  C   UNL     1     131.105 112.147 127.364  1.00  0.00     0.174 C 
BRANCH  42  43
ATOM     43  O   UNL     1     130.634 113.261 126.609  1.00  0.00    -0.395 OA
ATOM     44  H   UNL     1     130.113 113.828 127.205  1.00  0.00     0.210 HD
ENDBRANCH  42  43
ENDBRANCH  41  42
ENDBRANCH  38  41
ENDBRANCH   1  38
TORSDOF 9
ENDMDL
MODEL 7
REMARK VINA RESULT:     -11.0      1.142      1.535
REMARK SMILES Cc1cc(Nc2ncnc3cc(NS(=O)(=O)CCO)cc(N4CCC5(CC4)CC5)c23)cc(N2CCC(F)(F)CC2)c1
REMARK SMILES IDX 13 1 12 3 30 4 10 5 21 6 6 7 11 8 9 9 20 10 7 11 8 12 22 13
REMARK SMILES IDX 23 14 27 15 24 16 26 17 25 18 28 19 29 20 5 21 4 23 3 24
REMARK SMILES IDX 31 25 2 26 32 27 41 28 1 29 33 30 34 31 40 32 35 33 39 34
REMARK SMILES IDX 36 35 37 36 38 37 14 38 15 39 16 40 17 41 18 42 19 43
REMARK H PARENT 13 2 5 22 19 44
REMARK Flexibility Score: inf
ROOT
ATOM      1  N   UNL     1     134.242 114.303 128.701  1.00  0.00    -0.283 N 
ATOM      2  H   UNL     1     133.749 113.419 128.551  1.00  0.00     0.180 HD
ENDROOT
BRANCH   1   3
ATOM      3  C   UNL     1     133.448 115.355 129.248  1.00  0.00     0.053 A 
ATOM      4  C   UNL     1     131.991 117.459 130.415  1.00  0.00     0.067 A 
ATOM      5  C   UNL     1     133.182 117.716 129.711  1.00  0.00     0.080 A 
ATOM      6  C   UNL     1     131.529 116.096 130.522  1.00  0.00     0.052 A 
ATOM      7  C   UNL     1     131.369 118.622 130.946  1.00  0.00     0.143 A 
ATOM      8  C   UNL     1     133.892 116.668 129.150  1.00  0.00     0.056 A 
ATOM      9  N   UNL     1     133.694 118.936 129.540  1.00  0.00    -0.236 NA
ATOM     10  C   UNL     1     132.279 115.064 129.935  1.00  0.00     0.053 A 
ATOM     11  N   UNL     1     131.883 119.857 130.772  1.00  0.00    -0.219 NA
ATOM     12  C   UNL     1     133.016 119.951 130.079  1.00  0.00     0.224 A 
BRANCH   6  13
ATOM     13  N   UNL     1     130.336 115.805 131.255  1.00  0.00    -0.371 N 
ATOM     14  C   UNL     1     129.123 115.734 130.401  1.00  0.00     0.117 C 
ATOM     15  C   UNL     1     130.523 114.572 132.071  1.00  0.00     0.117 C 
ATOM     16  C   UNL     1     127.881 115.584 131.288  1.00  0.00     0.028 C 
ATOM     17  C   UNL     1     129.315 114.379 132.997  1.00  0.00     0.028 C 
ATOM     18  C   UNL     1     128.019 114.385 132.207  1.00  0.00    -0.026 C 
ATOM     19  C   UNL     1     127.419 113.063 131.778  1.00  0.00     0.008 C 
ATOM     20  C   UNL     1     126.773 113.856 132.880  1.00  0.00     0.008 C 
ENDBRANCH   6  13
BRANCH   7  21
ATOM     21  N   UNL     1     130.174 118.476 131.688  1.00  0.00    -0.339 N 
ATOM     22  H   UNL     1     129.480 117.959 131.144  1.00  0.00     0.168 HD
BRANCH  21  23
ATOM     23  C   UNL     1     129.743 118.946 132.938  1.00  0.00     0.042 A 
ATOM     24  C   UNL     1     129.727 120.328 133.163  1.00  0.00     0.029 A 
ATOM     25  C   UNL     1     129.340 118.111 133.990  1.00  0.00     0.052 A 
ATOM     26  C   UNL     1     129.310 120.863 134.384  1.00  0.00    -0.047 A 
ATOM     27  C   UNL     1     128.926 118.598 135.246  1.00  0.00     0.039 A 
ATOM     28  C   UNL     1     128.927 119.992 135.413  1.00  0.00     0.029 A 
ATOM     29  C   UNL     1     129.338 122.344 134.615  1.00  0.00     0.044 C 
BRANCH  27  30
ATOM     30  N   UNL     1     128.540 117.742 136.274  1.00  0.00    -0.371 N 
ATOM     31  C   UNL     1     127.556 116.683 136.029  1.00  0.00     0.122 C 
ATOM     32  C   UNL     1     129.045 117.935 137.637  1.00  0.00     0.122 C 
ATOM     33  C   UNL     1     127.788 115.537 136.997  1.00  0.00     0.098 C 
ATOM     34  C   UNL     1     127.999 117.487 138.641  1.00  0.00     0.098 C 
ATOM     35  C   UNL     1     127.660 116.027 138.424  1.00  0.00     0.251 C 
ATOM     36  F   UNL     1     126.389 115.811 138.862  1.00  0.00    -0.207 F 
ATOM     37  F   UNL     1     128.457 115.259 139.217  1.00  0.00    -0.207 F 
ENDBRANCH  27  30
ENDBRANCH  21  23
ENDBRANCH   7  21
ENDBRANCH   1   3
BRANCH   1  38
ATOM     38  S   UNL     1     135.717 113.974 129.473  1.00  0.00     0.234 S 
ATOM     39  O   UNL     1     136.798 114.052 128.516  1.00  0.00    -0.207 OA
ATOM     40  O   UNL     1     135.707 114.803 130.660  1.00  0.00    -0.207 OA
BRANCH  38  41
ATOM     41  C   UNL     1     135.482 112.285 129.985  1.00  0.00     0.188 C 
BRANCH  41  42
ATOM     42  C   UNL     1     134.146 112.134 130.677  1.00  0.00     0.174 C 
BRANCH  42  43
ATOM     43  O   UNL     1     133.115 111.953 129.709  1.00  0.00    -0.395 OA
ATOM     44  H   UNL     1     133.108 111.016 129.449  1.00  0.00     0.210 HD
ENDBRANCH  42  43
ENDBRANCH  41  42
ENDBRANCH  38  41
ENDBRANCH   1  38
TORSDOF 9
ENDMDL
MODEL 8
REMARK VINA RESULT:     -10.9      4.798      8.221
REMARK SMILES Cc1cc(Nc2ncnc3cc(NS(=O)(=O)CCO)cc(N4CCC5(CC4)CC5)c23)cc(N2CCC(F)(F)CC2)c1
REMARK SMILES IDX 13 1 12 3 30 4 10 5 21 6 6 7 11 8 9 9 20 10 7 11 8 12 22 13
REMARK SMILES IDX 23 14 27 15 24 16 26 17 25 18 28 19 29 20 5 21 4 23 3 24
REMARK SMILES IDX 31 25 2 26 32 27 41 28 1 29 33 30 34 31 40 32 35 33 39 34
REMARK SMILES IDX 36 35 37 36 38 37 14 38 15 39 16 40 17 41 18 42 19 43
REMARK H PARENT 13 2 5 22 19 44
REMARK Flexibility Score: inf
ROOT
ATOM      1  N   UNL     1     126.889 117.812 137.752  1.00  0.00    -0.283 N 
ATOM      2  H   UNL     1     126.441 118.631 138.171  1.00  0.00     0.180 HD
ENDROOT
BRANCH   1   3
ATOM      3  C   UNL     1     127.703 118.084 136.611  1.00  0.00     0.053 A 
ATOM      4  C   UNL     1     129.218 118.729 134.331  1.00  0.00     0.067 A 
ATOM      5  C   UNL     1     129.107 119.640 135.398  1.00  0.00     0.080 A 
ATOM      6  C   UNL     1     128.545 117.457 134.431  1.00  0.00     0.052 A 
ATOM      7  C   UNL     1     130.017 119.196 133.252  1.00  0.00     0.143 A 
ATOM      8  C   UNL     1     128.349 119.309 136.509  1.00  0.00     0.056 A 
ATOM      9  N   UNL     1     129.696 120.836 135.417  1.00  0.00    -0.236 NA
ATOM     10  C   UNL     1     127.790 117.163 135.578  1.00  0.00     0.053 A 
ATOM     11  N   UNL     1     130.616 120.405 133.270  1.00  0.00    -0.219 NA
ATOM     12  C   UNL     1     130.426 121.160 134.348  1.00  0.00     0.224 A 
BRANCH   6  13
ATOM     13  N   UNL     1     128.620 116.524 133.349  1.00  0.00    -0.371 N 
ATOM     14  C   UNL     1     129.149 115.196 133.752  1.00  0.00     0.117 C 
ATOM     15  C   UNL     1     127.300 116.421 132.667  1.00  0.00     0.117 C 
ATOM     16  C   UNL     1     129.348 114.325 132.506  1.00  0.00     0.028 C 
ATOM     17  C   UNL     1     127.441 115.574 131.396  1.00  0.00     0.028 C 
ATOM     18  C   UNL     1     128.061 114.225 131.710  1.00  0.00    -0.026 C 
ATOM     19  C   UNL     1     127.150 113.038 131.941  1.00  0.00     0.008 C 
ATOM     20  C   UNL     1     127.949 113.131 130.671  1.00  0.00     0.008 C 
ENDBRANCH   6  13
BRANCH   7  21
ATOM     21  N   UNL     1     130.181 118.367 132.118  1.00  0.00    -0.339 N 
ATOM     22  H   UNL     1     129.355 117.781 131.985  1.00  0.00     0.168 HD
BRANCH  21  23
ATOM     23  C   UNL     1     131.238 118.143 131.223  1.00  0.00     0.042 A 
ATOM     24  C   UNL     1     131.821 119.245 130.586  1.00  0.00     0.029 A 
ATOM     25  C   UNL     1     131.742 116.872 130.911  1.00  0.00     0.052 A 
ATOM     26  C   UNL     1     132.876 119.093 129.684  1.00  0.00    -0.047 A 
ATOM     27  C   UNL     1     132.793 116.661 129.996  1.00  0.00     0.039 A 
ATOM     28  C   UNL     1     133.339 117.803 129.391  1.00  0.00     0.029 A 
ATOM     29  C   UNL     1     133.457 120.285 128.984  1.00  0.00     0.044 C 
BRANCH  27  30
ATOM     30  N   UNL     1     133.264 115.385 129.701  1.00  0.00    -0.371 N 
ATOM     31  C   UNL     1     132.396 114.214 129.873  1.00  0.00     0.122 C 
ATOM     32  C   UNL     1     134.657 115.177 129.294  1.00  0.00     0.122 C 
ATOM     33  C   UNL     1     132.826 113.116 128.917  1.00  0.00     0.098 C 
ATOM     34  C   UNL     1     135.134 113.817 129.771  1.00  0.00     0.098 C 
ATOM     35  C   UNL     1     134.264 112.725 129.187  1.00  0.00     0.251 C 
ATOM     36  F   UNL     1     134.290 111.657 130.031  1.00  0.00    -0.207 F 
ATOM     37  F   UNL     1     134.817 112.285 128.023  1.00  0.00    -0.207 F 
ENDBRANCH  27  30
ENDBRANCH  21  23
ENDBRANCH   7  21
ENDBRANCH   1   3
BRANCH   1  38
ATOM     38  S   UNL     1     127.588 116.886 138.990  1.00  0.00     0.234 S 
ATOM     39  O   UNL     1     128.098 117.757 140.024  1.00  0.00    -0.207 OA
ATOM     40  O   UNL     1     126.606 115.864 139.287  1.00  0.00    -0.207 OA
BRANCH  38  41
ATOM     41  C   UNL     1     128.941 116.109 138.132  1.00  0.00     0.188 C 
BRANCH  41  42
ATOM     42  C   UNL     1     130.244 116.783 138.498  1.00  0.00     0.174 C 
BRANCH  42  43
ATOM     43  O   UNL     1     130.900 117.245 137.320  1.00  0.00    -0.395 OA
ATOM     44  H   UNL     1     130.242 117.282 136.605  1.00  0.00     0.210 HD
ENDBRANCH  42  43
ENDBRANCH  41  42
ENDBRANCH  38  41
ENDBRANCH   1  38
TORSDOF 9
ENDMDL
MODEL 9
REMARK VINA RESULT:     -10.9      4.768      8.383
REMARK SMILES Cc1cc(Nc2ncnc3cc(NS(=O)(=O)CCO)cc(N4CCC5(CC4)CC5)c23)cc(N2CCC(F)(F)CC2)c1
REMARK SMILES IDX 13 1 12 3 30 4 10 5 21 6 6 7 11 8 9 9 20 10 7 11 8 12 22 13
REMARK SMILES IDX 23 14 27 15 24 16 26 17 25 18 28 19 29 20 5 21 4 23 3 24
REMARK SMILES IDX 31 25 2 26 32 27 41 28 1 29 33 30 34 31 40 32 35 33 39 34
REMARK SMILES IDX 36 35 37 36 38 37 14 38 15 39 16 40 17 41 18 42 19 43
REMARK H PARENT 13 2 5 22 19 44
REMARK Flexibility Score: inf
ROOT
ATOM      1  N   UNL     1     127.202 118.203 137.689  1.00  0.00    -0.283 N 
ATOM      2  H   UNL     1     126.682 119.011 138.038  1.00  0.00     0.180 HD
ENDROOT
BRANCH   1   3
ATOM      3  C   UNL     1     127.977 118.441 136.514  1.00  0.00     0.053 A 
ATOM      4  C   UNL     1     129.410 119.018 134.164  1.00  0.00     0.067 A 
ATOM      5  C   UNL     1     129.316 119.969 135.197  1.00  0.00     0.080 A 
ATOM      6  C   UNL     1     128.762 117.740 134.335  1.00  0.00     0.052 A 
ATOM      7  C   UNL     1     130.168 119.454 133.042  1.00  0.00     0.143 A 
ATOM      8  C   UNL     1     128.598 119.671 136.343  1.00  0.00     0.056 A 
ATOM      9  N   UNL     1     129.885 121.174 135.150  1.00  0.00    -0.236 NA
ATOM     10  C   UNL     1     128.048 117.481 135.516  1.00  0.00     0.053 A 
ATOM     11  N   UNL     1     130.747 120.671 132.994  1.00  0.00    -0.219 NA
ATOM     12  C   UNL     1     130.577 121.467 134.047  1.00  0.00     0.224 A 
BRANCH   6  13
ATOM     13  N   UNL     1     128.820 116.766 133.289  1.00  0.00    -0.371 N 
ATOM     14  C   UNL     1     129.352 115.453 133.736  1.00  0.00     0.117 C 
ATOM     15  C   UNL     1     127.490 116.640 132.631  1.00  0.00     0.117 C 
ATOM     16  C   UNL     1     129.532 114.534 132.522  1.00  0.00     0.028 C 
ATOM     17  C   UNL     1     127.611 115.744 131.391  1.00  0.00     0.028 C 
ATOM     18  C   UNL     1     128.233 114.406 131.749  1.00  0.00    -0.026 C 
ATOM     19  C   UNL     1     127.323 113.232 132.038  1.00  0.00     0.008 C 
ATOM     20  C   UNL     1     128.104 113.274 130.754  1.00  0.00     0.008 C 
ENDBRANCH   6  13
BRANCH   7  21
ATOM     21  N   UNL     1     130.311 118.583 131.938  1.00  0.00    -0.339 N 
ATOM     22  H   UNL     1     129.454 118.045 131.797  1.00  0.00     0.168 HD
BRANCH  21  23
ATOM     23  C   UNL     1     131.377 118.266 131.082  1.00  0.00     0.042 A 
ATOM     24  C   UNL     1     132.033 119.310 130.417  1.00  0.00     0.029 A 
ATOM     25  C   UNL     1     131.820 116.959 130.836  1.00  0.00     0.052 A 
ATOM     26  C   UNL     1     133.100 119.065 129.550  1.00  0.00    -0.047 A 
ATOM     27  C   UNL     1     132.881 116.656 129.959  1.00  0.00     0.039 A 
ATOM     28  C   UNL     1     133.502 117.742 129.323  1.00  0.00     0.029 A 
ATOM     29  C   UNL     1     133.761 120.195 128.819  1.00  0.00     0.044 C 
BRANCH  27  30
ATOM     30  N   UNL     1     133.292 115.346 129.729  1.00  0.00    -0.371 N 
ATOM     31  C   UNL     1     132.326 114.243 129.790  1.00  0.00     0.122 C 
ATOM     32  C   UNL     1     134.706 115.033 129.505  1.00  0.00     0.122 C 
ATOM     33  C   UNL     1     132.793 113.106 128.900  1.00  0.00     0.098 C 
ATOM     34  C   UNL     1     135.018 113.648 130.041  1.00  0.00     0.098 C 
ATOM     35  C   UNL     1     134.152 112.615 129.352  1.00  0.00     0.251 C 
ATOM     36  F   UNL     1     133.991 111.557 130.194  1.00  0.00    -0.207 F 
ATOM     37  F   UNL     1     134.815 112.123 128.269  1.00  0.00    -0.207 F 
ENDBRANCH  27  30
ENDBRANCH  21  23
ENDBRANCH   7  21
ENDBRANCH   1   3
BRANCH   1  38
ATOM     38  S   UNL     1     127.997 117.467 138.995  1.00  0.00     0.234 S 
ATOM     39  O   UNL     1     129.232 116.869 138.541  1.00  0.00    -0.207 OA
ATOM     40  O   UNL     1     127.989 118.464 140.044  1.00  0.00    -0.207 OA
BRANCH  38  41
ATOM     41  C   UNL     1     126.838 116.192 139.445  1.00  0.00     0.188 C 
BRANCH  41  42
ATOM     42  C   UNL     1     126.282 115.533 138.201  1.00  0.00     0.174 C 
BRANCH  42  43
ATOM     43  O   UNL     1     127.349 115.033 137.399  1.00  0.00    -0.395 OA
ATOM     44  H   UNL     1     126.969 114.700 136.568  1.00  0.00     0.210 HD
ENDBRANCH  42  43
ENDBRANCH  41  42
ENDBRANCH  38  41
ENDBRANCH   1  38
TORSDOF 9
ENDMDL
