MODEL 1
REMARK VINA RESULT:     -12.9      0.000      0.000
REMARK SMILES Cc1cc(NC(=O)c2ccc(NS(=O)(=O)CCO)cc2C2CCC3(CC2)CC3)nc(N2CCC(F)(F)CC2)n1
REMARK SMILES IDX 12 1 11 3 8 4 9 5 20 6 10 7 19 8 6 9 5 10 7 11 4 13 3 14
REMARK SMILES IDX 29 15 2 16 30 17 39 18 1 19 31 20 32 21 38 22 33 23 37 24
REMARK SMILES IDX 34 25 35 26 36 27 21 28 22 29 26 30 23 31 25 32 24 33 27 34
REMARK SMILES IDX 28 35 13 36 14 37 15 38 16 39 17 40 18 41
REMARK H PARENT 12 2 5 12 18 42
REMARK Flexibility Score: inf
ROOT
ATOM      1  N   UNL     1     133.344 113.791 128.137  1.00  0.00    -0.283 N 
ATOM      2  H   UNL     1     133.583 114.117 127.195  1.00  0.00     0.180 HD
ENDROOT
BRANCH   1   3
ATOM      3  C   UNL     1     132.919 114.875 128.971  1.00  0.00     0.049 A 
ATOM      4  C   UNL     1     132.002 117.013 130.505  1.00  0.00     0.043 A 
ATOM      5  C   UNL     1     133.042 117.199 129.579  1.00  0.00     0.016 A 
ATOM      6  C   UNL     1     131.399 115.749 130.677  1.00  0.00    -0.030 A 
ATOM      7  C   UNL     1     133.498 116.129 128.811  1.00  0.00     0.027 A 
ATOM      8  C   UNL     1     131.868 114.689 129.874  1.00  0.00     0.031 A 
BRANCH   4   9
ATOM      9  C   UNL     1     131.544 118.211 131.255  1.00  0.00     0.257 C 
ATOM     10  N   UNL     1     131.456 118.008 132.611  1.00  0.00    -0.306 N 
ATOM     11  O   UNL     1     131.287 119.236 130.639  1.00  0.00    -0.269 OA
ATOM     12  H   UNL     1     131.659 117.093 132.992  1.00  0.00     0.171 HD
BRANCH  10  13
ATOM     13  C   UNL     1     131.076 118.924 133.595  1.00  0.00     0.138 A 
ATOM     14  C   UNL     1     131.488 120.233 133.623  1.00  0.00     0.070 A 
ATOM     15  N   UNL     1     130.264 118.395 134.528  1.00  0.00    -0.195 NA
ATOM     16  C   UNL     1     131.018 120.985 134.673  1.00  0.00     0.045 A 
ATOM     17  C   UNL     1     129.840 119.186 135.526  1.00  0.00     0.227 A 
ATOM     18  N   UNL     1     130.205 120.474 135.618  1.00  0.00    -0.218 NA
ATOM     19  C   UNL     1     131.409 122.425 134.805  1.00  0.00     0.067 C 
BRANCH  17  20
ATOM     20  N   UNL     1     129.016 118.638 136.523  1.00  0.00    -0.340 N 
ATOM     21  C   UNL     1     129.721 118.386 137.782  1.00  0.00     0.126 C 
ATOM     22  C   UNL     1     128.162 117.551 136.034  1.00  0.00     0.126 C 
ATOM     23  C   UNL     1     128.726 118.015 138.869  1.00  0.00     0.098 C 
ATOM     24  C   UNL     1     127.148 117.168 137.099  1.00  0.00     0.098 C 
ATOM     25  C   UNL     1     127.854 116.872 138.401  1.00  0.00     0.251 C 
ATOM     26  F   UNL     1     126.934 116.591 139.358  1.00  0.00    -0.207 F 
ATOM     27  F   UNL     1     128.611 115.752 138.265  1.00  0.00    -0.207 F 
ENDBRANCH  17  20
ENDBRANCH  10  13
ENDBRANCH   4   9
BRANCH   6  28
ATOM     28  C   UNL     1     130.256 115.518 131.661  1.00  0.00     0.020 C 
ATOM     29  C   UNL     1     130.200 114.064 132.181  1.00  0.00     0.009 C 
ATOM     30  C   UNL     1     128.905 116.001 131.087  1.00  0.00     0.009 C 
ATOM     31  C   UNL     1     128.852 113.773 132.832  1.00  0.00     0.007 C 
ATOM     32  C   UNL     1     127.993 114.850 130.668  1.00  0.00     0.007 C 
ATOM     33  C   UNL     1     127.724 113.908 131.827  1.00  0.00    -0.030 C 
ATOM     34  C   UNL     1     126.309 113.814 132.363  1.00  0.00     0.007 C 
ATOM     35  C   UNL     1     126.867 112.691 131.540  1.00  0.00     0.007 C 
ENDBRANCH   6  28
ENDBRANCH   1   3
BRANCH   1  36
ATOM     36  S   UNL     1     134.699 112.935 128.719  1.00  0.00     0.234 S 
ATOM     37  O   UNL     1     135.546 112.532 127.617  1.00  0.00    -0.207 OA
ATOM     38  O   UNL     1     134.170 111.982 129.670  1.00  0.00    -0.207 OA
BRANCH  36  39
ATOM     39  C   UNL     1     135.548 114.216 129.618  1.00  0.00     0.188 C 
BRANCH  39  40
ATOM     40  C   UNL     1     136.150 113.687 130.903  1.00  0.00     0.174 C 
BRANCH  40  41
ATOM     41  O   UNL     1     137.021 112.588 130.655  1.00  0.00    -0.395 OA
ATOM     42  H   UNL     1     137.678 112.868 129.983  1.00  0.00     0.210 HD
ENDBRANCH  40  41
ENDBRANCH  39  40
ENDBRANCH  36  39
ENDBRANCH   1  36
TORSDOF 9
ENDMDL
MODEL 2
REMARK VINA RESULT:     -12.5      0.924      1.232
REMARK SMILES Cc1cc(NC(=O)c2ccc(NS(=O)(=O)CCO)cc2C2CCC3(CC2)CC3)nc(N2CCC(F)(F)CC2)n1
REMARK SMILES IDX 12 1 11 3 8 4 9 5 20 6 10 7 19 8 6 9 5 10 7 11 4 13 3 14
REMARK SMILES IDX 29 15 2 16 30 17 39 18 1 19 31 20 32 21 38 22 33 23 37 24
REMARK SMILES IDX 34 25 35 26 36 27 21 28 22 29 26 30 23 31 25 32 24 33 27 34
REMARK SMILES IDX 28 35 13 36 14 37 15 38 16 39 17 40 18 41
REMARK H PARENT 12 2 5 12 18 42
REMARK Flexibility Score: inf
ROOT
ATOM      1  N   UNL     1     133.577 114.222 128.054  1.00  0.00    -0.283 N 
ATOM      2  H   UNL     1     134.154 114.653 127.325  1.00  0.00     0.180 HD
ENDROOT
BRANCH   1   3
ATOM      3  C   UNL     1     133.033 115.208 128.939  1.00  0.00     0.049 A 
ATOM      4  C   UNL     1     131.884 117.151 130.573  1.00  0.00     0.043 A 
ATOM      5  C   UNL     1     132.918 117.492 129.684  1.00  0.00     0.016 A 
ATOM      6  C   UNL     1     131.405 115.827 130.657  1.00  0.00    -0.030 A 
ATOM      7  C   UNL     1     133.489 116.519 128.866  1.00  0.00     0.027 A 
ATOM      8  C   UNL     1     131.989 114.867 129.805  1.00  0.00     0.031 A 
BRANCH   4   9
ATOM      9  C   UNL     1     131.298 118.252 131.380  1.00  0.00     0.257 C 
ATOM     10  N   UNL     1     130.721 117.826 132.551  1.00  0.00    -0.306 N 
ATOM     11  O   UNL     1     131.365 119.399 130.960  1.00  0.00    -0.269 OA
ATOM     12  H   UNL     1     130.695 116.837 132.763  1.00  0.00     0.171 HD
BRANCH  10  13
ATOM     13  C   UNL     1     130.100 118.598 133.536  1.00  0.00     0.138 A 
ATOM     14  C   UNL     1     129.960 119.961 133.464  1.00  0.00     0.070 A 
ATOM     15  N   UNL     1     129.653 117.873 134.576  1.00  0.00    -0.195 NA
ATOM     16  C   UNL     1     129.329 120.555 134.531  1.00  0.00     0.045 A 
ATOM     17  C   UNL     1     129.043 118.516 135.585  1.00  0.00     0.227 A 
ATOM     18  N   UNL     1     128.874 119.847 135.583  1.00  0.00    -0.218 NA
ATOM     19  C   UNL     1     129.127 122.039 134.559  1.00  0.00     0.067 C 
BRANCH  17  20
ATOM     20  N   UNL     1     128.597 117.774 136.692  1.00  0.00    -0.340 N 
ATOM     21  C   UNL     1     127.682 116.690 136.331  1.00  0.00     0.126 C 
ATOM     22  C   UNL     1     128.187 118.614 137.822  1.00  0.00     0.126 C 
ATOM     23  C   UNL     1     127.428 115.801 137.537  1.00  0.00     0.098 C 
ATOM     24  C   UNL     1     127.937 117.749 139.048  1.00  0.00     0.098 C 
ATOM     25  C   UNL     1     126.971 116.640 138.708  1.00  0.00     0.251 C 
ATOM     26  F   UNL     1     126.805 115.841 139.793  1.00  0.00    -0.207 F 
ATOM     27  F   UNL     1     125.748 117.167 138.438  1.00  0.00    -0.207 F 
ENDBRANCH  17  20
ENDBRANCH  10  13
ENDBRANCH   4   9
BRANCH   6  28
ATOM     28  C   UNL     1     130.272 115.428 131.598  1.00  0.00     0.020 C 
ATOM     29  C   UNL     1     130.279 113.919 131.935  1.00  0.00     0.009 C 
ATOM     30  C   UNL     1     128.901 115.919 131.080  1.00  0.00     0.009 C 
ATOM     31  C   UNL     1     128.944 113.493 132.538  1.00  0.00     0.007 C 
ATOM     32  C   UNL     1     128.041 114.790 130.517  1.00  0.00     0.007 C 
ATOM     33  C   UNL     1     127.812 113.702 131.551  1.00  0.00    -0.030 C 
ATOM     34  C   UNL     1     126.402 113.483 132.062  1.00  0.00     0.007 C 
ATOM     35  C   UNL     1     127.009 112.494 131.111  1.00  0.00     0.007 C 
ENDBRANCH   6  28
ENDBRANCH   1   3
BRANCH   1  36
ATOM     36  S   UNL     1     134.545 113.041 128.813  1.00  0.00     0.234 S 
ATOM     37  O   UNL     1     135.427 112.422 127.846  1.00  0.00    -0.207 OA
ATOM     38  O   UNL     1     133.636 112.268 129.630  1.00  0.00    -0.207 OA
BRANCH  36  39
ATOM     39  C   UNL     1     135.541 114.058 129.884  1.00  0.00     0.188 C 
BRANCH  39  40
ATOM     40  C   UNL     1     136.426 113.218 130.781  1.00  0.00     0.174 C 
BRANCH  40  41
ATOM     41  O   UNL     1     137.109 112.211 130.041  1.00  0.00    -0.395 OA
ATOM     42  H   UNL     1     136.967 111.353 130.494  1.00  0.00     0.210 HD
ENDBRANCH  40  41
ENDBRANCH  39  40
ENDBRANCH  36  39
ENDBRANCH   1  36
TORSDOF 9
ENDMDL
MODEL 3
REMARK VINA RESULT:     -12.5      1.106      1.139
REMARK SMILES Cc1cc(NC(=O)c2ccc(NS(=O)(=O)CCO)cc2C2CCC3(CC2)CC3)nc(N2CCC(F)(F)CC2)n1
REMARK SMILES IDX 12 1 11 3 8 4 9 5 20 6 10 7 19 8 6 9 5 10 7 11 4 13 3 14
REMARK SMILES IDX 29 15 2 16 30 17 39 18 1 19 31 20 32 21 38 22 33 23 37 24
REMARK SMILES IDX 34 25 35 26 36 27 21 28 22 29 26 30 23 31 25 32 24 33 27 34
REMARK SMILES IDX 28 35 13 36 14 37 15 38 16 39 17 40 18 41
REMARK H PARENT 12 2 5 12 18 42
REMARK Flexibility Score: inf
ROOT
ATOM      1  N   UNL     1     133.684 114.501 128.491  1.00  0.00    -0.283 N 
ATOM      2  H   UNL     1     134.688 114.685 128.393  1.00  0.00     0.180 HD
ENDROOT
BRANCH   1   3
ATOM      3  C   UNL     1     133.048 115.500 129.298  1.00  0.00     0.049 A 
ATOM      4  C   UNL     1     131.724 117.460 130.771  1.00  0.00     0.043 A 
ATOM      5  C   UNL     1     132.796 117.807 129.932  1.00  0.00     0.016 A 
ATOM      6  C   UNL     1     131.294 116.121 130.886  1.00  0.00    -0.030 A 
ATOM      7  C   UNL     1     133.455 116.824 129.194  1.00  0.00     0.027 A 
ATOM      8  C   UNL     1     131.967 115.151 130.114  1.00  0.00     0.031 A 
BRANCH   4   9
ATOM      9  C   UNL     1     131.046 118.567 131.493  1.00  0.00     0.257 C 
ATOM     10  N   UNL     1     130.589 118.212 132.738  1.00  0.00    -0.306 N 
ATOM     11  O   UNL     1     130.945 119.658 130.948  1.00  0.00    -0.269 OA
ATOM     12  H   UNL     1     130.700 117.258 133.056  1.00  0.00     0.171 HD
BRANCH  10  13
ATOM     13  C   UNL     1     129.927 119.013 133.673  1.00  0.00     0.138 A 
ATOM     14  C   UNL     1     129.900 120.384 133.623  1.00  0.00     0.070 A 
ATOM     15  N   UNL     1     129.318 118.306 134.641  1.00  0.00    -0.195 NA
ATOM     16  C   UNL     1     129.205 121.005 134.634  1.00  0.00     0.045 A 
ATOM     17  C   UNL     1     128.655 118.975 135.597  1.00  0.00     0.227 A 
ATOM     18  N   UNL     1     128.589 120.315 135.613  1.00  0.00    -0.218 NA
ATOM     19  C   UNL     1     129.115 122.500 134.680  1.00  0.00     0.067 C 
BRANCH  17  20
ATOM     20  N   UNL     1     128.038 118.250 136.631  1.00  0.00    -0.340 N 
ATOM     21  C   UNL     1     128.786 118.289 137.889  1.00  0.00     0.126 C 
ATOM     22  C   UNL     1     127.561 116.930 136.206  1.00  0.00     0.126 C 
ATOM     23  C   UNL     1     127.953 117.684 139.007  1.00  0.00     0.098 C 
ATOM     24  C   UNL     1     126.714 116.306 137.303  1.00  0.00     0.098 C 
ATOM     25  C   UNL     1     127.477 116.307 138.606  1.00  0.00     0.251 C 
ATOM     26  F   UNL     1     126.687 115.803 139.589  1.00  0.00    -0.207 F 
ATOM     27  F   UNL     1     128.541 115.468 138.512  1.00  0.00    -0.207 F 
ENDBRANCH  17  20
ENDBRANCH  10  13
ENDBRANCH   4   9
BRANCH   6  28
ATOM     28  C   UNL     1     130.122 115.714 131.774  1.00  0.00     0.020 C 
ATOM     29  C   UNL     1     130.196 114.236 132.220  1.00  0.00     0.009 C 
ATOM     30  C   UNL     1     128.765 116.078 131.131  1.00  0.00     0.009 C 
ATOM     31  C   UNL     1     128.849 113.765 132.761  1.00  0.00     0.007 C 
ATOM     32  C   UNL     1     128.018 114.859 130.594  1.00  0.00     0.007 C 
ATOM     33  C   UNL     1     127.781 113.832 131.686  1.00  0.00    -0.030 C 
ATOM     34  C   UNL     1     126.354 113.556 132.116  1.00  0.00     0.007 C 
ATOM     35  C   UNL     1     127.086 112.546 131.283  1.00  0.00     0.007 C 
ENDBRANCH   6  28
ENDBRANCH   1   3
BRANCH   1  36
ATOM     36  S   UNL     1     133.532 112.908 129.080  1.00  0.00     0.234 S 
ATOM     37  O   UNL     1     132.852 112.079 128.107  1.00  0.00    -0.207 OA
ATOM     38  O   UNL     1     133.056 113.046 130.439  1.00  0.00    -0.207 OA
BRANCH  36  39
ATOM     39  C   UNL     1     135.239 112.401 129.129  1.00  0.00     0.188 C 
BRANCH  39  40
ATOM     40  C   UNL     1     136.036 113.229 130.115  1.00  0.00     0.174 C 
BRANCH  40  41
ATOM     41  O   UNL     1     136.364 114.506 129.576  1.00  0.00    -0.395 OA
ATOM     42  H   UNL     1     137.279 114.462 129.227  1.00  0.00     0.210 HD
ENDBRANCH  40  41
ENDBRANCH  39  40
ENDBRANCH  36  39
ENDBRANCH   1  36
TORSDOF 9
ENDMDL
MODEL 4
REMARK VINA RESULT:     -11.4      1.099      1.296
REMARK SMILES Cc1cc(NC(=O)c2ccc(NS(=O)(=O)CCO)cc2C2CCC3(CC2)CC3)nc(N2CCC(F)(F)CC2)n1
REMARK SMILES IDX 12 1 11 3 8 4 9 5 20 6 10 7 19 8 6 9 5 10 7 11 4 13 3 14
REMARK SMILES IDX 29 15 2 16 30 17 39 18 1 19 31 20 32 21 38 22 33 23 37 24
REMARK SMILES IDX 34 25 35 26 36 27 21 28 22 29 26 30 23 31 25 32 24 33 27 34
REMARK SMILES IDX 28 35 13 36 14 37 15 38 16 39 17 40 18 41
REMARK H PARENT 12 2 5 12 18 42
REMARK Flexibility Score: inf
ROOT
ATOM      1  N   UNL     1     133.654 113.882 128.593  1.00  0.00    -0.283 N 
ATOM      2  H   UNL     1     133.560 114.034 127.584  1.00  0.00     0.180 HD
ENDROOT
BRANCH   1   3
ATOM      3  C   UNL     1     133.066 114.955 129.339  1.00  0.00     0.049 A 
ATOM      4  C   UNL     1     131.835 117.057 130.693  1.00  0.00     0.043 A 
ATOM      5  C   UNL     1     132.911 117.306 129.824  1.00  0.00     0.016 A 
ATOM      6  C   UNL     1     131.354 115.746 130.897  1.00  0.00    -0.030 A 
ATOM      7  C   UNL     1     133.523 116.253 129.146  1.00  0.00     0.027 A 
ATOM      8  C   UNL     1     131.981 114.703 130.184  1.00  0.00     0.031 A 
BRANCH   4   9
ATOM      9  C   UNL     1     131.209 118.235 131.346  1.00  0.00     0.257 C 
ATOM     10  N   UNL     1     130.666 117.955 132.577  1.00  0.00    -0.306 N 
ATOM     11  O   UNL     1     131.217 119.311 130.765  1.00  0.00    -0.269 OA
ATOM     12  H   UNL     1     130.689 117.007 132.927  1.00  0.00     0.171 HD
BRANCH  10  13
ATOM     13  C   UNL     1     130.022 118.833 133.452  1.00  0.00     0.138 A 
ATOM     14  C   UNL     1     129.998 120.195 133.291  1.00  0.00     0.070 A 
ATOM     15  N   UNL     1     129.428 118.211 134.486  1.00  0.00    -0.195 NA
ATOM     16  C   UNL     1     129.322 120.900 134.257  1.00  0.00     0.045 A 
ATOM     17  C   UNL     1     128.782 118.960 135.394  1.00  0.00     0.227 A 
ATOM     18  N   UNL     1     128.720 120.297 135.301  1.00  0.00    -0.218 NA
ATOM     19  C   UNL     1     129.237 122.395 134.182  1.00  0.00     0.067 C 
BRANCH  17  20
ATOM     20  N   UNL     1     128.181 118.325 136.494  1.00  0.00    -0.340 N 
ATOM     21  C   UNL     1     128.967 118.435 137.725  1.00  0.00     0.126 C 
ATOM     22  C   UNL     1     127.663 116.990 136.179  1.00  0.00     0.126 C 
ATOM     23  C   UNL     1     128.155 117.931 138.906  1.00  0.00     0.098 C 
ATOM     24  C   UNL     1     126.835 116.466 137.342  1.00  0.00     0.098 C 
ATOM     25  C   UNL     1     127.637 116.541 138.619  1.00  0.00     0.251 C 
ATOM     26  F   UNL     1     126.866 116.127 139.658  1.00  0.00    -0.207 F 
ATOM     27  F   UNL     1     128.679 115.672 138.556  1.00  0.00    -0.207 F 
ENDBRANCH  17  20
ENDBRANCH  10  13
ENDBRANCH   4   9
BRANCH   6  28
ATOM     28  C   UNL     1     130.176 115.444 131.819  1.00  0.00     0.020 C 
ATOM     29  C   UNL     1     130.168 113.981 132.318  1.00  0.00     0.009 C 
ATOM     30  C   UNL     1     128.833 115.868 131.185  1.00  0.00     0.009 C 
ATOM     31  C   UNL     1     128.806 113.615 132.898  1.00  0.00     0.007 C 
ATOM     32  C   UNL     1     128.002 114.680 130.707  1.00  0.00     0.007 C 
ATOM     33  C   UNL     1     127.724 113.708 131.839  1.00  0.00    -0.030 C 
ATOM     34  C   UNL     1     126.290 113.537 132.302  1.00  0.00     0.007 C 
ATOM     35  C   UNL     1     126.944 112.455 131.495  1.00  0.00     0.007 C 
ENDBRANCH   6  28
ENDBRANCH   1   3
BRANCH   1  36
ATOM     36  S   UNL     1     135.311 113.628 128.900  1.00  0.00     0.234 S 
ATOM     37  O   UNL     1     135.903 114.822 129.465  1.00  0.00    -0.207 OA
ATOM     38  O   UNL     1     135.831 113.004 127.703  1.00  0.00    -0.207 OA
BRANCH  36  39
ATOM     39  C   UNL     1     135.233 112.399 130.188  1.00  0.00     0.188 C 
BRANCH  39  40
ATOM     40  C   UNL     1     133.814 111.918 130.410  1.00  0.00     0.174 C 
BRANCH  40  41
ATOM     41  O   UNL     1     133.569 111.637 131.785  1.00  0.00    -0.395 OA
ATOM     42  H   UNL     1     132.951 112.317 132.128  1.00  0.00     0.210 HD
ENDBRANCH  40  41
ENDBRANCH  39  40
ENDBRANCH  36  39
ENDBRANCH   1  36
TORSDOF 9
ENDMDL
MODEL 5
REMARK VINA RESULT:     -11.2      1.380      1.936
REMARK SMILES Cc1cc(NC(=O)c2ccc(NS(=O)(=O)CCO)cc2C2CCC3(CC2)CC3)nc(N2CCC(F)(F)CC2)n1
REMARK SMILES IDX 12 1 11 3 8 4 9 5 20 6 10 7 19 8 6 9 5 10 7 11 4 13 3 14
REMARK SMILES IDX 29 15 2 16 30 17 39 18 1 19 31 20 32 21 38 22 33 23 37 24
REMARK SMILES IDX 34 25 35 26 36 27 21 28 22 29 26 30 23 31 25 32 24 33 27 34
REMARK SMILES IDX 28 35 13 36 14 37 15 38 16 39 17 40 18 41
REMARK H PARENT 12 2 5 12 18 42
REMARK Flexibility Score: inf
ROOT
ATOM      1  N   UNL     1     133.955 114.721 128.657  1.00  0.00    -0.283 N 
ATOM      2  H   UNL     1     134.971 114.823 128.748  1.00  0.00     0.180 HD
ENDROOT
BRANCH   1   3
ATOM      3  C   UNL     1     133.261 115.708 129.430  1.00  0.00     0.049 A 
ATOM      4  C   UNL     1     131.829 117.643 130.835  1.00  0.00     0.043 A 
ATOM      5  C   UNL     1     132.919 118.013 130.028  1.00  0.00     0.016 A 
ATOM      6  C   UNL     1     131.436 116.293 130.949  1.00  0.00    -0.030 A 
ATOM      7  C   UNL     1     133.632 117.044 129.325  1.00  0.00     0.027 A 
ATOM      8  C   UNL     1     132.164 115.336 130.213  1.00  0.00     0.031 A 
BRANCH   4   9
ATOM      9  C   UNL     1     131.094 118.737 131.519  1.00  0.00     0.257 C 
ATOM     10  N   UNL     1     130.680 118.410 132.787  1.00  0.00    -0.306 N 
ATOM     11  O   UNL     1     130.915 119.794 130.930  1.00  0.00    -0.269 OA
ATOM     12  H   UNL     1     130.855 117.480 133.144  1.00  0.00     0.171 HD
BRANCH  10  13
ATOM     13  C   UNL     1     129.983 119.208 133.698  1.00  0.00     0.138 A 
ATOM     14  C   UNL     1     129.899 120.575 133.610  1.00  0.00     0.070 A 
ATOM     15  N   UNL     1     129.401 118.504 134.685  1.00  0.00    -0.195 NA
ATOM     16  C   UNL     1     129.177 121.195 134.602  1.00  0.00     0.045 A 
ATOM     17  C   UNL     1     128.708 119.172 135.621  1.00  0.00     0.227 A 
ATOM     18  N   UNL     1     128.587 120.508 135.600  1.00  0.00    -0.218 NA
ATOM     19  C   UNL     1     129.025 122.685 134.606  1.00  0.00     0.067 C 
BRANCH  17  20
ATOM     20  N   UNL     1     128.120 118.451 136.674  1.00  0.00    -0.340 N 
ATOM     21  C   UNL     1     128.905 118.489 137.910  1.00  0.00     0.126 C 
ATOM     22  C   UNL     1     127.624 117.133 136.266  1.00  0.00     0.126 C 
ATOM     23  C   UNL     1     128.103 117.889 139.053  1.00  0.00     0.098 C 
ATOM     24  C   UNL     1     126.808 116.514 137.389  1.00  0.00     0.098 C 
ATOM     25  C   UNL     1     127.609 116.514 138.669  1.00  0.00     0.251 C 
ATOM     26  F   UNL     1     126.847 116.015 139.676  1.00  0.00    -0.207 F 
ATOM     27  F   UNL     1     128.667 115.670 138.545  1.00  0.00    -0.207 F 
ENDBRANCH  17  20
ENDBRANCH  10  13
ENDBRANCH   4   9
BRANCH   6  28
ATOM     28  C   UNL     1     130.246 115.860 131.802  1.00  0.00     0.020 C 
ATOM     29  C   UNL     1     130.325 114.376 132.227  1.00  0.00     0.009 C 
ATOM     30  C   UNL     1     128.902 116.220 131.130  1.00  0.00     0.009 C 
ATOM     31  C   UNL     1     128.970 113.883 132.726  1.00  0.00     0.007 C 
ATOM     32  C   UNL     1     128.181 115.002 130.556  1.00  0.00     0.007 C 
ATOM     33  C   UNL     1     127.929 113.955 131.626  1.00  0.00    -0.030 C 
ATOM     34  C   UNL     1     126.494 113.658 132.015  1.00  0.00     0.007 C 
ATOM     35  C   UNL     1     127.258 112.669 131.186  1.00  0.00     0.007 C 
ENDBRANCH   6  28
ENDBRANCH   1   3
BRANCH   1  36
ATOM     36  S   UNL     1     133.583 113.108 129.066  1.00  0.00     0.234 S 
ATOM     37  O   UNL     1     132.342 113.055 129.809  1.00  0.00    -0.207 OA
ATOM     38  O   UNL     1     134.813 112.551 129.583  1.00  0.00    -0.207 OA
BRANCH  36  39
ATOM     39  C   UNL     1     133.282 112.412 127.454  1.00  0.00     0.188 C 
BRANCH  39  40
ATOM     40  C   UNL     1     131.801 112.241 127.191  1.00  0.00     0.174 C 
BRANCH  40  41
ATOM     41  O   UNL     1     131.540 111.065 126.431  1.00  0.00    -0.395 OA
ATOM     42  H   UNL     1     132.380 110.779 126.016  1.00  0.00     0.210 HD
ENDBRANCH  40  41
ENDBRANCH  39  40
ENDBRANCH  36  39
ENDBRANCH   1  36
TORSDOF 9
ENDMDL
MODEL 6
REMARK VINA RESULT:     -11.1      1.486      2.132
REMARK SMILES Cc1cc(NC(=O)c2ccc(NS(=O)(=O)CCO)cc2C2CCC3(CC2)CC3)nc(N2CCC(F)(F)CC2)n1
REMARK SMILES IDX 12 1 11 3 8 4 9 5 20 6 10 7 19 8 6 9 5 10 7 11 4 13 3 14
REMARK SMILES IDX 29 15 2 16 30 17 39 18 1 19 31 20 32 21 38 22 33 23 37 24
REMARK SMILES IDX 34 25 35 26 36 27 21 28 22 29 26 30 23 31 25 32 24 33 27 34
REMARK SMILES IDX 28 35 13 36 14 37 15 38 16 39 17 40 18 41
REMARK H PARENT 12 2 5 12 18 42
REMARK Flexibility Score: inf
ROOT
ATOM      1  N   UNL     1     133.834 115.101 128.326  1.00  0.00    -0.283 N 
ATOM      2  H   UNL     1     134.572 115.599 127.818  1.00  0.00     0.180 HD
ENDROOT
BRANCH   1   3
ATOM      3  C   UNL     1     133.153 115.970 129.239  1.00  0.00     0.049 A 
ATOM      4  C   UNL     1     131.738 117.680 130.924  1.00  0.00     0.043 A 
ATOM      5  C   UNL     1     132.762 118.181 130.103  1.00  0.00     0.016 A 
ATOM      6  C   UNL     1     131.402 116.309 130.913  1.00  0.00    -0.030 A 
ATOM      7  C   UNL     1     133.467 117.323 129.259  1.00  0.00     0.027 A 
ATOM      8  C   UNL     1     132.119 115.469 130.037  1.00  0.00     0.031 A 
BRANCH   4   9
ATOM      9  C   UNL     1     131.005 118.662 131.764  1.00  0.00     0.257 C 
ATOM     10  N   UNL     1     130.580 118.148 132.964  1.00  0.00    -0.306 N 
ATOM     11  O   UNL     1     130.838 119.798 131.342  1.00  0.00    -0.269 OA
ATOM     12  H   UNL     1     130.747 117.173 133.176  1.00  0.00     0.171 HD
BRANCH  10  13
ATOM     13  C   UNL     1     129.882 118.803 133.982  1.00  0.00     0.138 A 
ATOM     14  C   UNL     1     129.711 120.163 134.040  1.00  0.00     0.070 A 
ATOM     15  N   UNL     1     129.395 117.967 134.916  1.00  0.00    -0.195 NA
ATOM     16  C   UNL     1     129.003 120.631 135.121  1.00  0.00     0.045 A 
ATOM     17  C   UNL     1     128.710 118.490 135.945  1.00  0.00     0.227 A 
ATOM     18  N   UNL     1     128.507 119.811 136.067  1.00  0.00    -0.218 NA
ATOM     19  C   UNL     1     128.761 122.101 135.286  1.00  0.00     0.067 C 
BRANCH  17  20
ATOM     20  N   UNL     1     128.221 117.630 136.943  1.00  0.00    -0.340 N 
ATOM     21  C   UNL     1     127.196 116.704 136.456  1.00  0.00     0.126 C 
ATOM     22  C   UNL     1     127.922 118.318 138.203  1.00  0.00     0.126 C 
ATOM     23  C   UNL     1     126.886 115.666 137.522  1.00  0.00     0.098 C 
ATOM     24  C   UNL     1     127.618 117.301 139.291  1.00  0.00     0.098 C 
ATOM     25  C   UNL     1     126.541 116.352 138.823  1.00  0.00     0.251 C 
ATOM     26  F   UNL     1     126.323 115.413 139.780  1.00  0.00    -0.207 F 
ATOM     27  F   UNL     1     125.369 117.025 138.684  1.00  0.00    -0.207 F 
ENDBRANCH  17  20
ENDBRANCH  10  13
ENDBRANCH   4   9
BRANCH   6  28
ATOM     28  C   UNL     1     130.283 115.737 131.779  1.00  0.00     0.020 C 
ATOM     29  C   UNL     1     130.393 114.207 131.963  1.00  0.00     0.009 C 
ATOM     30  C   UNL     1     128.891 116.181 131.277  1.00  0.00     0.009 C 
ATOM     31  C   UNL     1     129.082 113.628 132.484  1.00  0.00     0.007 C 
ATOM     32  C   UNL     1     128.125 115.058 130.581  1.00  0.00     0.007 C 
ATOM     33  C   UNL     1     127.957 113.857 131.493  1.00  0.00    -0.030 C 
ATOM     34  C   UNL     1     126.557 113.487 131.942  1.00  0.00     0.007 C 
ATOM     35  C   UNL     1     127.252 112.646 130.913  1.00  0.00     0.007 C 
ENDBRANCH   6  28
ENDBRANCH   1   3
BRANCH   1  36
ATOM     36  S   UNL     1     134.566 113.742 129.050  1.00  0.00     0.234 S 
ATOM     37  O   UNL     1     133.902 113.421 130.295  1.00  0.00    -0.207 OA
ATOM     38  O   UNL     1     135.990 113.990 128.979  1.00  0.00    -0.207 OA
BRANCH  36  39
ATOM     39  C   UNL     1     134.157 112.470 127.871  1.00  0.00     0.188 C 
BRANCH  39  40
ATOM     40  C   UNL     1     132.708 112.557 127.442  1.00  0.00     0.174 C 
BRANCH  40  41
ATOM     41  O   UNL     1     132.299 111.382 126.748  1.00  0.00    -0.395 OA
ATOM     42  H   UNL     1     132.570 111.473 125.811  1.00  0.00     0.210 HD
ENDBRANCH  40  41
ENDBRANCH  39  40
ENDBRANCH  36  39
ENDBRANCH   1  36
TORSDOF 9
ENDMDL
MODEL 7
REMARK VINA RESULT:     -11.0      1.315      1.813
REMARK SMILES Cc1cc(NC(=O)c2ccc(NS(=O)(=O)CCO)cc2C2CCC3(CC2)CC3)nc(N2CCC(F)(F)CC2)n1
REMARK SMILES IDX 12 1 11 3 8 4 9 5 20 6 10 7 19 8 6 9 5 10 7 11 4 13 3 14
REMARK SMILES IDX 29 15 2 16 30 17 39 18 1 19 31 20 32 21 38 22 33 23 37 24
REMARK SMILES IDX 34 25 35 26 36 27 21 28 22 29 26 30 23 31 25 32 24 33 27 34
REMARK SMILES IDX 28 35 13 36 14 37 15 38 16 39 17 40 18 41
REMARK H PARENT 12 2 5 12 18 42
REMARK Flexibility Score: inf
ROOT
ATOM      1  N   UNL     1     134.059 113.857 128.327  1.00  0.00    -0.283 N 
ATOM      2  H   UNL     1     134.538 114.487 127.676  1.00  0.00     0.180 HD
ENDROOT
BRANCH   1   3
ATOM      3  C   UNL     1     133.127 114.568 129.150  1.00  0.00     0.049 A 
ATOM      4  C   UNL     1     131.244 115.978 130.643  1.00  0.00     0.043 A 
ATOM      5  C   UNL     1     132.380 116.631 130.136  1.00  0.00     0.016 A 
ATOM      6  C   UNL     1     131.029 114.604 130.407  1.00  0.00    -0.030 A 
ATOM      7  C   UNL     1     133.319 115.923 129.387  1.00  0.00     0.027 A 
ATOM      8  C   UNL     1     131.986 113.918 129.632  1.00  0.00     0.031 A 
BRANCH   4   9
ATOM      9  C   UNL     1     130.268 116.809 131.395  1.00  0.00     0.257 C 
ATOM     10  N   UNL     1     130.771 117.321 132.566  1.00  0.00    -0.306 N 
ATOM     11  O   UNL     1     129.143 116.962 130.941  1.00  0.00    -0.269 OA
ATOM     12  H   UNL     1     131.712 117.082 132.850  1.00  0.00     0.171 HD
BRANCH  10  13
ATOM     13  C   UNL     1     130.127 118.146 133.491  1.00  0.00     0.138 A 
ATOM     14  C   UNL     1     130.020 119.508 133.359  1.00  0.00     0.070 A 
ATOM     15  N   UNL     1     129.623 117.474 134.541  1.00  0.00    -0.195 NA
ATOM     16  C   UNL     1     129.359 120.157 134.373  1.00  0.00     0.045 A 
ATOM     17  C   UNL     1     128.986 118.170 135.496  1.00  0.00     0.227 A 
ATOM     18  N   UNL     1     128.847 119.503 135.434  1.00  0.00    -0.218 NA
ATOM     19  C   UNL     1     129.188 121.645 134.333  1.00  0.00     0.067 C 
BRANCH  17  20
ATOM     20  N   UNL     1     128.480 117.483 136.613  1.00  0.00    -0.340 N 
ATOM     21  C   UNL     1     127.539 116.418 136.260  1.00  0.00     0.126 C 
ATOM     22  C   UNL     1     128.065 118.376 137.700  1.00  0.00     0.126 C 
ATOM     23  C   UNL     1     127.216 115.582 137.487  1.00  0.00     0.098 C 
ATOM     24  C   UNL     1     127.746 117.564 138.946  1.00  0.00     0.098 C 
ATOM     25  C   UNL     1     126.752 116.477 138.612  1.00  0.00     0.251 C 
ATOM     26  F   UNL     1     126.524 115.723 139.718  1.00  0.00    -0.207 F 
ATOM     27  F   UNL     1     125.558 117.036 138.285  1.00  0.00    -0.207 F 
ENDBRANCH  17  20
ENDBRANCH  10  13
ENDBRANCH   4   9
BRANCH   6  28
ATOM     28  C   UNL     1     129.796 113.870 130.928  1.00  0.00     0.020 C 
ATOM     29  C   UNL     1     128.480 114.408 130.320  1.00  0.00     0.009 C 
ATOM     30  C   UNL     1     129.769 113.826 132.472  1.00  0.00     0.009 C 
ATOM     31  C   UNL     1     127.278 113.938 131.132  1.00  0.00     0.007 C 
ATOM     32  C   UNL     1     128.733 114.773 133.074  1.00  0.00     0.007 C 
ATOM     33  C   UNL     1     127.340 114.472 132.551  1.00  0.00    -0.030 C 
ATOM     34  C   UNL     1     126.302 113.955 133.528  1.00  0.00     0.007 C 
ATOM     35  C   UNL     1     126.216 115.368 133.032  1.00  0.00     0.007 C 
ENDBRANCH   6  28
ENDBRANCH   1   3
BRANCH   1  36
ATOM     36  S   UNL     1     135.273 113.023 129.186  1.00  0.00     0.234 S 
ATOM     37  O   UNL     1     136.304 112.568 128.278  1.00  0.00    -0.207 OA
ATOM     38  O   UNL     1     134.567 112.116 130.065  1.00  0.00    -0.207 OA
BRANCH  36  39
ATOM     39  C   UNL     1     135.958 114.342 130.169  1.00  0.00     0.188 C 
BRANCH  39  40
ATOM     40  C   UNL     1     136.740 113.805 131.350  1.00  0.00     0.174 C 
BRANCH  40  41
ATOM     41  O   UNL     1     136.850 112.386 131.299  1.00  0.00    -0.395 OA
ATOM     42  H   UNL     1     137.725 112.163 130.917  1.00  0.00     0.210 HD
ENDBRANCH  40  41
ENDBRANCH  39  40
ENDBRANCH  36  39
ENDBRANCH   1  36
TORSDOF 9
ENDMDL
MODEL 8
REMARK VINA RESULT:     -10.4      1.303      1.560
REMARK SMILES Cc1cc(NC(=O)c2ccc(NS(=O)(=O)CCO)cc2C2CCC3(CC2)CC3)nc(N2CCC(F)(F)CC2)n1
REMARK SMILES IDX 12 1 11 3 8 4 9 5 20 6 10 7 19 8 6 9 5 10 7 11 4 13 3 14
REMARK SMILES IDX 29 15 2 16 30 17 39 18 1 19 31 20 32 21 38 22 33 23 37 24
REMARK SMILES IDX 34 25 35 26 36 27 21 28 22 29 26 30 23 31 25 32 24 33 27 34
REMARK SMILES IDX 28 35 13 36 14 37 15 38 16 39 17 40 18 41
REMARK H PARENT 12 2 5 12 18 42
REMARK Flexibility Score: inf
ROOT
ATOM      1  N   UNL     1     134.318 114.574 128.523  1.00  0.00    -0.283 N 
ATOM      2  H   UNL     1     135.259 114.790 128.868  1.00  0.00     0.180 HD
ENDROOT
BRANCH   1   3
ATOM      3  C   UNL     1     133.312 115.186 129.338  1.00  0.00     0.049 A 
ATOM      4  C   UNL     1     131.285 116.399 130.817  1.00  0.00     0.043 A 
ATOM      5  C   UNL     1     132.371 117.156 130.347  1.00  0.00     0.016 A 
ATOM      6  C   UNL     1     131.194 115.016 130.550  1.00  0.00    -0.030 A 
ATOM      7  C   UNL     1     133.382 116.548 129.606  1.00  0.00     0.027 A 
ATOM      8  C   UNL     1     132.222 114.431 129.783  1.00  0.00     0.031 A 
BRANCH   4   9
ATOM      9  C   UNL     1     130.226 117.126 131.563  1.00  0.00     0.257 C 
ATOM     10  N   UNL     1     130.707 117.865 132.617  1.00  0.00    -0.306 N 
ATOM     11  O   UNL     1     129.062 117.015 131.205  1.00  0.00    -0.269 OA
ATOM     12  H   UNL     1     131.695 117.838 132.835  1.00  0.00     0.171 HD
BRANCH  10  13
ATOM     13  C   UNL     1     129.988 118.669 133.504  1.00  0.00     0.138 A 
ATOM     14  C   UNL     1     129.924 120.037 133.418  1.00  0.00     0.070 A 
ATOM     15  N   UNL     1     129.361 117.970 134.467  1.00  0.00    -0.195 NA
ATOM     16  C   UNL     1     129.174 120.663 134.384  1.00  0.00     0.045 A 
ATOM     17  C   UNL     1     128.643 118.644 135.379  1.00  0.00     0.227 A 
ATOM     18  N   UNL     1     128.539 119.981 135.357  1.00  0.00    -0.218 NA
ATOM     19  C   UNL     1     129.040 122.156 134.387  1.00  0.00     0.067 C 
BRANCH  17  20
ATOM     20  N   UNL     1     128.008 117.928 136.407  1.00  0.00    -0.340 N 
ATOM     21  C   UNL     1     128.653 118.093 137.711  1.00  0.00     0.126 C 
ATOM     22  C   UNL     1     127.665 116.553 136.028  1.00  0.00     0.126 C 
ATOM     23  C   UNL     1     127.787 117.483 138.801  1.00  0.00     0.098 C 
ATOM     24  C   UNL     1     126.788 115.922 137.097  1.00  0.00     0.098 C 
ATOM     25  C   UNL     1     127.448 116.053 138.449  1.00  0.00     0.251 C 
ATOM     26  F   UNL     1     126.627 115.541 139.401  1.00  0.00    -0.207 F 
ATOM     27  F   UNL     1     128.578 115.299 138.481  1.00  0.00    -0.207 F 
ENDBRANCH  17  20
ENDBRANCH  10  13
ENDBRANCH   4   9
BRANCH   6  28
ATOM     28  C   UNL     1     130.018 114.168 131.030  1.00  0.00     0.020 C 
ATOM     29  C   UNL     1     128.685 114.560 130.353  1.00  0.00     0.009 C 
ATOM     30  C   UNL     1     129.923 114.146 132.572  1.00  0.00     0.009 C 
ATOM     31  C   UNL     1     127.499 113.983 131.120  1.00  0.00     0.007 C 
ATOM     32  C   UNL     1     128.770 114.991 133.107  1.00  0.00     0.007 C 
ATOM     33  C   UNL     1     127.441 114.542 132.528  1.00  0.00    -0.030 C 
ATOM     34  C   UNL     1     126.416 113.937 133.468  1.00  0.00     0.007 C 
ATOM     35  C   UNL     1     126.211 115.326 132.941  1.00  0.00     0.007 C 
ENDBRANCH   6  28
ENDBRANCH   1   3
BRANCH   1  36
ATOM     36  S   UNL     1     134.211 112.876 128.415  1.00  0.00     0.234 S 
ATOM     37  O   UNL     1     134.141 112.468 127.028  1.00  0.00    -0.207 OA
ATOM     38  O   UNL     1     133.205 112.494 129.381  1.00  0.00    -0.207 OA
BRANCH  36  39
ATOM     39  C   UNL     1     135.808 112.396 129.043  1.00  0.00     0.188 C 
BRANCH  39  40
ATOM     40  C   UNL     1     135.875 112.531 130.550  1.00  0.00     0.174 C 
BRANCH  40  41
ATOM     41  O   UNL     1     137.209 112.761 130.992  1.00  0.00    -0.395 OA
ATOM     42  H   UNL     1     137.819 112.376 130.328  1.00  0.00     0.210 HD
ENDBRANCH  40  41
ENDBRANCH  39  40
ENDBRANCH  36  39
ENDBRANCH   1  36
TORSDOF 9
ENDMDL
MODEL 9
REMARK VINA RESULT:     -10.4      1.503      2.202
REMARK SMILES Cc1cc(NC(=O)c2ccc(NS(=O)(=O)CCO)cc2C2CCC3(CC2)CC3)nc(N2CCC(F)(F)CC2)n1
REMARK SMILES IDX 12 1 11 3 8 4 9 5 20 6 10 7 19 8 6 9 5 10 7 11 4 13 3 14
REMARK SMILES IDX 29 15 2 16 30 17 39 18 1 19 31 20 32 21 38 22 33 23 37 24
REMARK SMILES IDX 34 25 35 26 36 27 21 28 22 29 26 30 23 31 25 32 24 33 27 34
REMARK SMILES IDX 28 35 13 36 14 37 15 38 16 39 17 40 18 41
REMARK H PARENT 12 2 5 12 18 42
REMARK Flexibility Score: inf
ROOT
ATOM      1  N   UNL     1     134.575 114.533 128.720  1.00  0.00    -0.283 N 
ATOM      2  H   UNL     1     135.474 114.570 129.212  1.00  0.00     0.180 HD
ENDROOT
BRANCH   1   3
ATOM      3  C   UNL     1     133.540 115.172 129.476  1.00  0.00     0.049 A 
ATOM      4  C   UNL     1     131.459 116.431 130.836  1.00  0.00     0.043 A 
ATOM      5  C   UNL     1     132.543 117.180 130.348  1.00  0.00     0.016 A 
ATOM      6  C   UNL     1     131.397 115.034 130.648  1.00  0.00    -0.030 A 
ATOM      7  C   UNL     1     133.582 116.548 129.666  1.00  0.00     0.027 A 
ATOM      8  C   UNL     1     132.452 114.425 129.939  1.00  0.00     0.031 A 
BRANCH   4   9
ATOM      9  C   UNL     1     130.372 117.182 131.516  1.00  0.00     0.257 C 
ATOM     10  N   UNL     1     130.800 117.902 132.604  1.00  0.00    -0.306 N 
ATOM     11  O   UNL     1     129.232 117.102 131.080  1.00  0.00    -0.269 OA
ATOM     12  H   UNL     1     131.770 117.849 132.887  1.00  0.00     0.171 HD
BRANCH  10  13
ATOM     13  C   UNL     1     130.043 118.720 133.447  1.00  0.00     0.138 A 
ATOM     14  C   UNL     1     129.912 120.076 133.283  1.00  0.00     0.070 A 
ATOM     15  N   UNL     1     129.453 118.047 134.450  1.00  0.00    -0.195 NA
ATOM     16  C   UNL     1     129.134 120.719 134.215  1.00  0.00     0.045 A 
ATOM     17  C   UNL     1     128.703 118.736 135.325  1.00  0.00     0.227 A 
ATOM     18  N   UNL     1     128.534 120.064 135.228  1.00  0.00    -0.218 NA
ATOM     19  C   UNL     1     128.928 122.201 134.134  1.00  0.00     0.067 C 
BRANCH  17  20
ATOM     20  N   UNL     1     128.105 118.050 136.395  1.00  0.00    -0.340 N 
ATOM     21  C   UNL     1     128.797 118.251 137.670  1.00  0.00     0.126 C 
ATOM     22  C   UNL     1     127.749 116.666 136.067  1.00  0.00     0.126 C 
ATOM     23  C   UNL     1     127.970 117.673 138.807  1.00  0.00     0.098 C 
ATOM     24  C   UNL     1     126.910 116.066 137.184  1.00  0.00     0.098 C 
ATOM     25  C   UNL     1     127.618 116.234 138.507  1.00  0.00     0.251 C 
ATOM     26  F   UNL     1     126.832 115.750 139.502  1.00  0.00    -0.207 F 
ATOM     27  F   UNL     1     128.748 115.479 138.519  1.00  0.00    -0.207 F 
ENDBRANCH  17  20
ENDBRANCH  10  13
ENDBRANCH   4   9
BRANCH   6  28
ATOM     28  C   UNL     1     130.225 114.195 131.149  1.00  0.00     0.020 C 
ATOM     29  C   UNL     1     128.909 114.498 130.396  1.00  0.00     0.009 C 
ATOM     30  C   UNL     1     130.072 114.289 132.683  1.00  0.00     0.009 C 
ATOM     31  C   UNL     1     127.709 113.950 131.161  1.00  0.00     0.007 C 
ATOM     32  C   UNL     1     128.879 115.142 133.109  1.00  0.00     0.007 C 
ATOM     33  C   UNL     1     127.584 114.614 132.519  1.00  0.00    -0.030 C 
ATOM     34  C   UNL     1     126.539 114.056 133.465  1.00  0.00     0.007 C 
ATOM     35  C   UNL     1     126.320 115.394 132.824  1.00  0.00     0.007 C 
ENDBRANCH   6  28
ENDBRANCH   1   3
BRANCH   1  36
ATOM     36  S   UNL     1     134.281 112.894 128.356  1.00  0.00     0.234 S 
ATOM     37  O   UNL     1     133.622 112.245 129.469  1.00  0.00    -0.207 OA
ATOM     38  O   UNL     1     135.521 112.396 127.801  1.00  0.00    -0.207 OA
BRANCH  36  39
ATOM     39  C   UNL     1     133.095 113.048 127.036  1.00  0.00     0.188 C 
BRANCH  39  40
ATOM     40  C   UNL     1     131.815 112.302 127.350  1.00  0.00     0.174 C 
BRANCH  40  41
ATOM     41  O   UNL     1     131.667 111.152 126.522  1.00  0.00    -0.395 OA
ATOM     42  H   UNL     1     132.259 110.452 126.867  1.00  0.00     0.210 HD
ENDBRANCH  40  41
ENDBRANCH  39  40
ENDBRANCH  36  39
ENDBRANCH   1  36
TORSDOF 9
ENDMDL
