MODEL 1
REMARK VINA RESULT:     -13.5      0.000      0.000
REMARK SMILES CC(C)(C)NS(=O)(=O)c1cccc(C(=O)N2CC3(CCC4(CC4)CC3)c3cc(NS(C)(=O)=O)ccc32)c1
REMARK SMILES IDX 13 1 37 2 9 3 10 4 11 5 12 6 14 7 15 8 16 9 36 10 35 11
REMARK SMILES IDX 26 12 34 13 27 14 18 15 17 16 28 17 19 18 25 19 20 20 24 21
REMARK SMILES IDX 21 22 22 23 23 24 29 25 30 27 31 28 32 29 33 30 6 31 7 32
REMARK SMILES IDX 8 33 5 34 2 36 1 37 3 38 4 39
REMARK H PARENT 29 26 5 35
REMARK Flexibility Score: inf
ROOT
ATOM      1  C   UNL     1     130.535 119.554 133.438  1.00  0.00     0.041 A 
ATOM      2  C   UNL     1     130.683 118.962 134.693  1.00  0.00     0.035 A 
ATOM      3  C   UNL     1     129.920 119.443 135.761  1.00  0.00     0.083 A 
ATOM      4  C   UNL     1     129.027 120.505 135.584  1.00  0.00     0.022 A 
ATOM      5  C   UNL     1     128.868 121.069 134.317  1.00  0.00     0.002 A 
ATOM      6  C   UNL     1     129.614 120.589 133.239  1.00  0.00     0.014 A 
ENDROOT
BRANCH   1   7
ATOM      7  C   UNL     1     131.315 119.059 132.286  1.00  0.00     0.258 C 
ATOM      8  O   UNL     1     132.238 119.774 131.908  1.00  0.00    -0.269 OA
BRANCH   7   9
ATOM      9  N   UNL     1     130.948 117.832 131.754  1.00  0.00    -0.307 N 
ATOM     10  C   UNL     1     131.717 117.076 130.854  1.00  0.00     0.048 A 
ATOM     11  C   UNL     1     132.913 117.415 130.241  1.00  0.00     0.029 A 
ATOM     12  C   UNL     1     131.109 115.846 130.600  1.00  0.00    -0.014 A 
ATOM     13  C   UNL     1     133.504 116.500 129.361  1.00  0.00     0.029 A 
ATOM     14  C   UNL     1     131.695 114.930 129.728  1.00  0.00     0.033 A 
ATOM     15  C   UNL     1     129.830 115.680 131.394  1.00  0.00     0.016 C 
ATOM     16  C   UNL     1     129.718 117.079 132.066  1.00  0.00     0.138 C 
ATOM     17  C   UNL     1     132.906 115.260 129.114  1.00  0.00     0.049 A 
ATOM     18  C   UNL     1     128.623 115.394 130.475  1.00  0.00     0.014 C 
ATOM     19  C   UNL     1     129.987 114.558 132.445  1.00  0.00     0.014 C 
ATOM     20  C   UNL     1     127.337 115.158 131.269  1.00  0.00     0.008 C 
ATOM     21  C   UNL     1     128.697 114.302 133.227  1.00  0.00     0.008 C 
ATOM     22  C   UNL     1     127.541 114.058 132.284  1.00  0.00    -0.030 C 
ATOM     23  C   UNL     1     126.316 113.361 132.831  1.00  0.00     0.007 C 
ATOM     24  C   UNL     1     127.227 112.634 131.881  1.00  0.00     0.007 C 
BRANCH  17  25
ATOM     25  N   UNL     1     133.492 114.310 128.229  1.00  0.00    -0.284 N 
ATOM     26  H   UNL     1     132.919 113.967 127.458  1.00  0.00     0.180 HD
BRANCH  25  27
ATOM     27  S   UNL     1     134.540 113.131 128.814  1.00  0.00     0.229 S 
ATOM     28  C   UNL     1     135.611 114.064 129.891  1.00  0.00     0.183 C 
ATOM     29  O   UNL     1     133.725 112.274 129.649  1.00  0.00    -0.207 OA
ATOM     30  O   UNL     1     135.329 112.589 127.731  1.00  0.00    -0.207 OA
ENDBRANCH  25  27
ENDBRANCH  17  25
ENDBRANCH   7   9
ENDBRANCH   1   7
BRANCH   3  31
ATOM     31  S   UNL     1     130.155 118.726 137.364  1.00  0.00     0.241 S 
ATOM     32  O   UNL     1     130.926 117.518 137.158  1.00  0.00    -0.207 OA
ATOM     33  O   UNL     1     130.610 119.756 138.269  1.00  0.00    -0.207 OA
BRANCH  31  34
ATOM     34  N   UNL     1     128.631 118.223 137.809  1.00  0.00    -0.206 NA
ATOM     35  H   UNL     1     128.174 118.845 138.474  1.00  0.00     0.141 HD
BRANCH  34  36
ATOM     36  C   UNL     1     127.959 116.951 137.474  1.00  0.00     0.025 C 
ATOM     37  C   UNL     1     128.617 115.810 138.256  1.00  0.00     0.028 C 
ATOM     38  C   UNL     1     127.951 116.639 135.978  1.00  0.00     0.028 C 
ATOM     39  C   UNL     1     126.500 117.095 137.946  1.00  0.00     0.028 C 
ENDBRANCH  34  36
ENDBRANCH  31  34
ENDBRANCH   3  31
TORSDOF 7
ENDMDL
MODEL 2
REMARK VINA RESULT:     -13.1      0.832      1.155
REMARK SMILES CC(C)(C)NS(=O)(=O)c1cccc(C(=O)N2CC3(CCC4(CC4)CC3)c3cc(NS(C)(=O)=O)ccc32)c1
REMARK SMILES IDX 13 1 37 2 9 3 10 4 11 5 12 6 14 7 15 8 16 9 36 10 35 11
REMARK SMILES IDX 26 12 34 13 27 14 18 15 17 16 28 17 19 18 25 19 20 20 24 21
REMARK SMILES IDX 21 22 22 23 23 24 29 25 30 27 31 28 32 29 33 30 6 31 7 32
REMARK SMILES IDX 8 33 5 34 2 36 1 37 3 38 4 39
REMARK H PARENT 29 26 5 35
REMARK Flexibility Score: inf
ROOT
ATOM      1  C   UNL     1     130.345 119.562 133.458  1.00  0.00     0.041 A 
ATOM      2  C   UNL     1     130.366 118.887 134.679  1.00  0.00     0.035 A 
ATOM      3  C   UNL     1     129.588 119.373 135.733  1.00  0.00     0.083 A 
ATOM      4  C   UNL     1     128.805 120.521 135.577  1.00  0.00     0.022 A 
ATOM      5  C   UNL     1     128.771 121.171 134.342  1.00  0.00     0.002 A 
ATOM      6  C   UNL     1     129.534 120.689 133.278  1.00  0.00     0.014 A 
ENDROOT
BRANCH   1   7
ATOM      7  C   UNL     1     131.145 119.066 132.320  1.00  0.00     0.258 C 
ATOM      8  O   UNL     1     132.053 119.796 131.936  1.00  0.00    -0.269 OA
BRANCH   7   9
ATOM      9  N   UNL     1     130.809 117.822 131.806  1.00  0.00    -0.307 N 
ATOM     10  C   UNL     1     131.613 117.057 130.945  1.00  0.00     0.048 A 
ATOM     11  C   UNL     1     132.820 117.400 130.357  1.00  0.00     0.029 A 
ATOM     12  C   UNL     1     131.029 115.813 130.704  1.00  0.00    -0.014 A 
ATOM     13  C   UNL     1     133.448 116.474 129.514  1.00  0.00     0.029 A 
ATOM     14  C   UNL     1     131.651 114.887 129.869  1.00  0.00     0.033 A 
ATOM     15  C   UNL     1     129.732 115.647 131.467  1.00  0.00     0.016 C 
ATOM     16  C   UNL     1     129.582 117.058 132.102  1.00  0.00     0.138 C 
ATOM     17  C   UNL     1     132.874 115.220 129.279  1.00  0.00     0.049 A 
ATOM     18  C   UNL     1     128.554 115.322 130.522  1.00  0.00     0.014 C 
ATOM     19  C   UNL     1     129.876 114.551 132.547  1.00  0.00     0.014 C 
ATOM     20  C   UNL     1     127.250 115.085 131.286  1.00  0.00     0.008 C 
ATOM     21  C   UNL     1     128.568 114.294 133.300  1.00  0.00     0.008 C 
ATOM     22  C   UNL     1     127.443 114.012 132.332  1.00  0.00    -0.030 C 
ATOM     23  C   UNL     1     126.213 113.309 132.862  1.00  0.00     0.007 C 
ATOM     24  C   UNL     1     127.159 112.575 131.954  1.00  0.00     0.007 C 
BRANCH  17  25
ATOM     25  N   UNL     1     133.497 114.259 128.433  1.00  0.00    -0.284 N 
ATOM     26  H   UNL     1     132.892 113.686 127.845  1.00  0.00     0.180 HD
BRANCH  25  27
ATOM     27  S   UNL     1     134.858 113.418 128.953  1.00  0.00     0.229 S 
ATOM     28  C   UNL     1     134.185 112.309 130.176  1.00  0.00     0.183 C 
ATOM     29  O   UNL     1     135.269 112.616 127.820  1.00  0.00    -0.207 OA
ATOM     30  O   UNL     1     135.780 114.322 129.604  1.00  0.00    -0.207 OA
ENDBRANCH  25  27
ENDBRANCH  17  25
ENDBRANCH   7   9
ENDBRANCH   1   7
BRANCH   3  31
ATOM     31  S   UNL     1     129.663 118.544 137.298  1.00  0.00     0.241 S 
ATOM     32  O   UNL     1     131.062 118.250 137.533  1.00  0.00    -0.207 OA
ATOM     33  O   UNL     1     128.887 119.294 138.257  1.00  0.00    -0.207 OA
BRANCH  31  34
ATOM     34  N   UNL     1     128.932 117.074 137.012  1.00  0.00    -0.206 NA
ATOM     35  H   UNL     1     129.385 116.529 136.279  1.00  0.00     0.141 HD
BRANCH  34  36
ATOM     36  C   UNL     1     127.668 116.562 137.576  1.00  0.00     0.025 C 
ATOM     37  C   UNL     1     126.491 117.309 136.941  1.00  0.00     0.028 C 
ATOM     38  C   UNL     1     127.597 116.651 139.100  1.00  0.00     0.028 C 
ATOM     39  C   UNL     1     127.584 115.078 137.174  1.00  0.00     0.028 C 
ENDBRANCH  34  36
ENDBRANCH  31  34
ENDBRANCH   3  31
TORSDOF 7
ENDMDL
MODEL 3
REMARK VINA RESULT:     -12.9      0.841      1.124
REMARK SMILES CC(C)(C)NS(=O)(=O)c1cccc(C(=O)N2CC3(CCC4(CC4)CC3)c3cc(NS(C)(=O)=O)ccc32)c1
REMARK SMILES IDX 13 1 37 2 9 3 10 4 11 5 12 6 14 7 15 8 16 9 36 10 35 11
REMARK SMILES IDX 26 12 34 13 27 14 18 15 17 16 28 17 19 18 25 19 20 20 24 21
REMARK SMILES IDX 21 22 22 23 23 24 29 25 30 27 31 28 32 29 33 30 6 31 7 32
REMARK SMILES IDX 8 33 5 34 2 36 1 37 3 38 4 39
REMARK H PARENT 29 26 5 35
REMARK Flexibility Score: inf
ROOT
ATOM      1  C   UNL     1     130.288 119.826 133.841  1.00  0.00     0.041 A 
ATOM      2  C   UNL     1     130.537 119.131 135.025  1.00  0.00     0.035 A 
ATOM      3  C   UNL     1     129.813 119.469 136.172  1.00  0.00     0.083 A 
ATOM      4  C   UNL     1     128.860 120.491 136.143  1.00  0.00     0.022 A 
ATOM      5  C   UNL     1     128.601 121.160 134.945  1.00  0.00     0.002 A 
ATOM      6  C   UNL     1     129.307 120.823 133.790  1.00  0.00     0.014 A 
ENDROOT
BRANCH   1   7
ATOM      7  C   UNL     1     131.026 119.483 132.608  1.00  0.00     0.258 C 
ATOM      8  O   UNL     1     131.831 120.317 132.208  1.00  0.00    -0.269 OA
BRANCH   7   9
ATOM      9  N   UNL     1     130.756 118.250 132.032  1.00  0.00    -0.307 N 
ATOM     10  C   UNL     1     131.595 117.576 131.130  1.00  0.00     0.048 A 
ATOM     11  C   UNL     1     132.779 118.014 130.557  1.00  0.00     0.029 A 
ATOM     12  C   UNL     1     131.079 116.316 130.827  1.00  0.00    -0.014 A 
ATOM     13  C   UNL     1     133.450 117.168 129.666  1.00  0.00     0.029 A 
ATOM     14  C   UNL     1     131.745 115.469 129.943  1.00  0.00     0.033 A 
ATOM     15  C   UNL     1     129.797 116.040 131.584  1.00  0.00     0.016 C 
ATOM     16  C   UNL     1     129.574 117.407 132.292  1.00  0.00     0.138 C 
ATOM     17  C   UNL     1     132.944 115.899 129.368  1.00  0.00     0.049 A 
ATOM     18  C   UNL     1     128.633 115.700 130.627  1.00  0.00     0.014 C 
ATOM     19  C   UNL     1     130.007 114.899 132.606  1.00  0.00     0.014 C 
ATOM     20  C   UNL     1     127.349 115.353 131.383  1.00  0.00     0.008 C 
ATOM     21  C   UNL     1     128.720 114.533 133.348  1.00  0.00     0.008 C 
ATOM     22  C   UNL     1     127.606 114.240 132.371  1.00  0.00    -0.030 C 
ATOM     23  C   UNL     1     126.419 113.444 132.868  1.00  0.00     0.007 C 
ATOM     24  C   UNL     1     127.399 112.810 131.920  1.00  0.00     0.007 C 
BRANCH  17  25
ATOM     25  N   UNL     1     133.614 115.018 128.471  1.00  0.00    -0.284 N 
ATOM     26  H   UNL     1     133.573 115.238 127.476  1.00  0.00     0.180 HD
BRANCH  25  27
ATOM     27  S   UNL     1     133.631 113.361 128.755  1.00  0.00     0.229 S 
ATOM     28  C   UNL     1     132.259 112.785 127.773  1.00  0.00     0.183 C 
ATOM     29  O   UNL     1     134.844 112.876 128.129  1.00  0.00    -0.207 OA
ATOM     30  O   UNL     1     133.350 113.093 130.148  1.00  0.00    -0.207 OA
ENDBRANCH  25  27
ENDBRANCH  17  25
ENDBRANCH   7   9
ENDBRANCH   1   7
BRANCH   3  31
ATOM     31  S   UNL     1     130.175 118.622 137.686  1.00  0.00     0.241 S 
ATOM     32  O   UNL     1     130.933 117.443 137.319  1.00  0.00    -0.207 OA
ATOM     33  O   UNL     1     130.695 119.576 138.637  1.00  0.00    -0.207 OA
BRANCH  31  34
ATOM     34  N   UNL     1     128.692 118.066 138.202  1.00  0.00    -0.206 NA
ATOM     35  H   UNL     1     128.326 118.572 139.008  1.00  0.00     0.141 HD
BRANCH  34  36
ATOM     36  C   UNL     1     127.952 116.878 137.734  1.00  0.00     0.025 C 
ATOM     37  C   UNL     1     127.201 116.252 138.913  1.00  0.00     0.028 C 
ATOM     38  C   UNL     1     128.837 115.836 137.050  1.00  0.00     0.028 C 
ATOM     39  C   UNL     1     126.922 117.386 136.707  1.00  0.00     0.028 C 
ENDBRANCH  34  36
ENDBRANCH  31  34
ENDBRANCH   3  31
TORSDOF 7
ENDMDL
MODEL 4
REMARK VINA RESULT:     -12.7      0.893      1.155
REMARK SMILES CC(C)(C)NS(=O)(=O)c1cccc(C(=O)N2CC3(CCC4(CC4)CC3)c3cc(NS(C)(=O)=O)ccc32)c1
REMARK SMILES IDX 13 1 37 2 9 3 10 4 11 5 12 6 14 7 15 8 16 9 36 10 35 11
REMARK SMILES IDX 26 12 34 13 27 14 18 15 17 16 28 17 19 18 25 19 20 20 24 21
REMARK SMILES IDX 21 22 22 23 23 24 29 25 30 27 31 28 32 29 33 30 6 31 7 32
REMARK SMILES IDX 8 33 5 34 2 36 1 37 3 38 4 39
REMARK H PARENT 29 26 5 35
REMARK Flexibility Score: inf
ROOT
ATOM      1  C   UNL     1     130.380 119.857 133.484  1.00  0.00     0.041 A 
ATOM      2  C   UNL     1     130.140 119.102 134.633  1.00  0.00     0.035 A 
ATOM      3  C   UNL     1     129.306 119.627 135.624  1.00  0.00     0.083 A 
ATOM      4  C   UNL     1     128.726 120.891 135.478  1.00  0.00     0.022 A 
ATOM      5  C   UNL     1     128.952 121.624 134.312  1.00  0.00     0.002 A 
ATOM      6  C   UNL     1     129.772 121.106 133.309  1.00  0.00     0.014 A 
ENDROOT
BRANCH   1   7
ATOM      7  C   UNL     1     131.245 119.325 132.412  1.00  0.00     0.258 C 
ATOM      8  O   UNL     1     132.208 120.016 132.097  1.00  0.00    -0.269 OA
BRANCH   7   9
ATOM      9  N   UNL     1     130.902 118.092 131.877  1.00  0.00    -0.307 N 
ATOM     10  C   UNL     1     131.694 117.344 130.989  1.00  0.00     0.048 A 
ATOM     11  C   UNL     1     132.894 117.698 130.394  1.00  0.00     0.029 A 
ATOM     12  C   UNL     1     131.105 116.107 130.730  1.00  0.00    -0.014 A 
ATOM     13  C   UNL     1     133.509 116.790 129.524  1.00  0.00     0.029 A 
ATOM     14  C   UNL     1     131.715 115.197 129.867  1.00  0.00     0.033 A 
ATOM     15  C   UNL     1     129.817 115.926 131.505  1.00  0.00     0.016 C 
ATOM     16  C   UNL     1     129.677 117.324 132.172  1.00  0.00     0.138 C 
ATOM     17  C   UNL     1     132.931 115.542 129.270  1.00  0.00     0.049 A 
ATOM     18  C   UNL     1     128.627 115.622 130.568  1.00  0.00     0.014 C 
ATOM     19  C   UNL     1     129.974 114.807 132.560  1.00  0.00     0.014 C 
ATOM     20  C   UNL     1     127.333 115.370 131.344  1.00  0.00     0.008 C 
ATOM     21  C   UNL     1     128.675 114.535 133.324  1.00  0.00     0.008 C 
ATOM     22  C   UNL     1     127.537 114.275 132.365  1.00  0.00    -0.030 C 
ATOM     23  C   UNL     1     126.313 113.562 132.895  1.00  0.00     0.007 C 
ATOM     24  C   UNL     1     127.247 112.846 131.960  1.00  0.00     0.007 C 
BRANCH  17  25
ATOM     25  N   UNL     1     133.542 114.598 128.396  1.00  0.00    -0.284 N 
ATOM     26  H   UNL     1     133.357 114.691 127.397  1.00  0.00     0.180 HD
BRANCH  25  27
ATOM     27  S   UNL     1     133.718 112.991 128.861  1.00  0.00     0.229 S 
ATOM     28  C   UNL     1     135.454 112.694 128.583  1.00  0.00     0.183 C 
ATOM     29  O   UNL     1     133.500 112.980 130.293  1.00  0.00    -0.207 OA
ATOM     30  O   UNL     1     132.954 112.135 127.982  1.00  0.00    -0.207 OA
ENDBRANCH  25  27
ENDBRANCH  17  25
ENDBRANCH   7   9
ENDBRANCH   1   7
BRANCH   3  31
ATOM     31  S   UNL     1     129.051 118.688 137.105  1.00  0.00     0.241 S 
ATOM     32  O   UNL     1     130.270 117.937 137.324  1.00  0.00    -0.207 OA
ATOM     33  O   UNL     1     128.524 119.565 138.124  1.00  0.00    -0.207 OA
BRANCH  31  34
ATOM     34  N   UNL     1     127.896 117.566 136.679  1.00  0.00    -0.206 NA
ATOM     35  H   UNL     1     127.191 117.930 136.039  1.00  0.00     0.141 HD
BRANCH  34  36
ATOM     36  C   UNL     1     127.706 116.205 137.219  1.00  0.00     0.025 C 
ATOM     37  C   UNL     1     126.462 115.577 136.583  1.00  0.00     0.028 C 
ATOM     38  C   UNL     1     127.607 116.161 138.744  1.00  0.00     0.028 C 
ATOM     39  C   UNL     1     128.942 115.392 136.790  1.00  0.00     0.028 C 
ENDBRANCH  34  36
ENDBRANCH  31  34
ENDBRANCH   3  31
TORSDOF 7
ENDMDL
MODEL 5
REMARK VINA RESULT:     -12.6      1.463      7.780
REMARK SMILES CC(C)(C)NS(=O)(=O)c1cccc(C(=O)N2CC3(CCC4(CC4)CC3)c3cc(NS(C)(=O)=O)ccc32)c1
REMARK SMILES IDX 13 1 37 2 9 3 10 4 11 5 12 6 14 7 15 8 16 9 36 10 35 11
REMARK SMILES IDX 26 12 34 13 27 14 18 15 17 16 28 17 19 18 25 19 20 20 24 21
REMARK SMILES IDX 21 22 22 23 23 24 29 25 30 27 31 28 32 29 33 30 6 31 7 32
REMARK SMILES IDX 8 33 5 34 2 36 1 37 3 38 4 39
REMARK H PARENT 29 26 5 35
REMARK Flexibility Score: inf
ROOT
ATOM      1  C   UNL     1     132.500 118.537 130.416  1.00  0.00     0.041 A 
ATOM      2  C   UNL     1     132.543 117.170 130.137  1.00  0.00     0.035 A 
ATOM      3  C   UNL     1     133.665 116.649 129.488  1.00  0.00     0.083 A 
ATOM      4  C   UNL     1     134.727 117.478 129.113  1.00  0.00     0.022 A 
ATOM      5  C   UNL     1     134.684 118.838 129.423  1.00  0.00     0.002 A 
ATOM      6  C   UNL     1     133.575 119.369 130.083  1.00  0.00     0.014 A 
ENDROOT
BRANCH   1   7
ATOM      7  C   UNL     1     131.335 119.117 131.114  1.00  0.00     0.258 C 
ATOM      8  O   UNL     1     131.102 120.300 130.891  1.00  0.00    -0.269 OA
BRANCH   7   9
ATOM      9  N   UNL     1     130.605 118.271 131.937  1.00  0.00    -0.307 N 
ATOM     10  C   UNL     1     130.235 118.550 133.263  1.00  0.00     0.048 A 
ATOM     11  C   UNL     1     130.585 119.636 134.048  1.00  0.00     0.029 A 
ATOM     12  C   UNL     1     129.417 117.538 133.767  1.00  0.00    -0.014 A 
ATOM     13  C   UNL     1     130.104 119.703 135.361  1.00  0.00     0.029 A 
ATOM     14  C   UNL     1     128.932 117.602 135.072  1.00  0.00     0.033 A 
ATOM     15  C   UNL     1     129.145 116.469 132.730  1.00  0.00     0.016 C 
ATOM     16  C   UNL     1     130.048 116.957 131.561  1.00  0.00     0.138 C 
ATOM     17  C   UNL     1     129.273 118.698 135.868  1.00  0.00     0.049 A 
ATOM     18  C   UNL     1     129.570 115.071 133.229  1.00  0.00     0.014 C 
ATOM     19  C   UNL     1     127.652 116.470 132.330  1.00  0.00     0.014 C 
ATOM     20  C   UNL     1     129.238 113.972 132.218  1.00  0.00     0.008 C 
ATOM     21  C   UNL     1     127.310 115.358 131.336  1.00  0.00     0.008 C 
ATOM     22  C   UNL     1     127.772 114.017 131.855  1.00  0.00    -0.030 C 
ATOM     23  C   UNL     1     127.151 112.774 131.259  1.00  0.00     0.007 C 
ATOM     24  C   UNL     1     126.802 113.183 132.663  1.00  0.00     0.007 C 
BRANCH  17  25
ATOM     25  N   UNL     1     128.765 118.749 137.197  1.00  0.00    -0.284 N 
ATOM     26  H   UNL     1     128.427 119.649 137.539  1.00  0.00     0.180 HD
BRANCH  25  27
ATOM     27  S   UNL     1     129.471 117.833 138.418  1.00  0.00     0.229 S 
ATOM     28  C   UNL     1     128.456 116.368 138.441  1.00  0.00     0.183 C 
ATOM     29  O   UNL     1     130.772 117.451 137.908  1.00  0.00    -0.207 OA
ATOM     30  O   UNL     1     129.336 118.511 139.688  1.00  0.00    -0.207 OA
ENDBRANCH  25  27
ENDBRANCH  17  25
ENDBRANCH   7   9
ENDBRANCH   1   7
BRANCH   3  31
ATOM     31  S   UNL     1     133.689 114.923 129.085  1.00  0.00     0.241 S 
ATOM     32  O   UNL     1     132.897 114.259 130.100  1.00  0.00    -0.207 OA
ATOM     33  O   UNL     1     133.381 114.771 127.682  1.00  0.00    -0.207 OA
BRANCH  31  34
ATOM     34  N   UNL     1     135.265 114.464 129.366  1.00  0.00    -0.206 NA
ATOM     35  H   UNL     1     135.947 115.185 129.133  1.00  0.00     0.141 HD
BRANCH  34  36
ATOM     36  C   UNL     1     135.769 113.133 129.757  1.00  0.00     0.025 C 
ATOM     37  C   UNL     1     136.277 113.188 131.201  1.00  0.00     0.028 C 
ATOM     38  C   UNL     1     136.857 112.593 128.827  1.00  0.00     0.028 C 
ATOM     39  C   UNL     1     134.563 112.177 129.695  1.00  0.00     0.028 C 
ENDBRANCH  34  36
ENDBRANCH  31  34
ENDBRANCH   3  31
TORSDOF 7
ENDMDL
MODEL 6
REMARK VINA RESULT:     -12.3      1.773      7.864
REMARK SMILES CC(C)(C)NS(=O)(=O)c1cccc(C(=O)N2CC3(CCC4(CC4)CC3)c3cc(NS(C)(=O)=O)ccc32)c1
REMARK SMILES IDX 13 1 37 2 9 3 10 4 11 5 12 6 14 7 15 8 16 9 36 10 35 11
REMARK SMILES IDX 26 12 34 13 27 14 18 15 17 16 28 17 19 18 25 19 20 20 24 21
REMARK SMILES IDX 21 22 22 23 23 24 29 25 30 27 31 28 32 29 33 30 6 31 7 32
REMARK SMILES IDX 8 33 5 34 2 36 1 37 3 38 4 39
REMARK H PARENT 29 26 5 35
REMARK Flexibility Score: inf
ROOT
ATOM      1  C   UNL     1     132.125 118.521 130.736  1.00  0.00     0.041 A 
ATOM      2  C   UNL     1     132.245 117.177 130.378  1.00  0.00     0.035 A 
ATOM      3  C   UNL     1     133.290 116.793 129.534  1.00  0.00     0.083 A 
ATOM      4  C   UNL     1     134.200 117.735 129.045  1.00  0.00     0.022 A 
ATOM      5  C   UNL     1     134.086 119.071 129.432  1.00  0.00     0.002 A 
ATOM      6  C   UNL     1     133.055 119.466 130.285  1.00  0.00     0.014 A 
ENDROOT
BRANCH   1   7
ATOM      7  C   UNL     1     131.040 118.957 131.638  1.00  0.00     0.258 C 
ATOM      8  O   UNL     1     130.769 120.154 131.622  1.00  0.00    -0.269 OA
BRANCH   7   9
ATOM      9  N   UNL     1     130.419 117.978 132.399  1.00  0.00    -0.307 N 
ATOM     10  C   UNL     1     130.289 118.000 133.798  1.00  0.00     0.048 A 
ATOM     11  C   UNL     1     130.817 118.908 134.701  1.00  0.00     0.029 A 
ATOM     12  C   UNL     1     129.521 116.921 134.236  1.00  0.00    -0.014 A 
ATOM     13  C   UNL     1     130.566 118.726 136.067  1.00  0.00     0.029 A 
ATOM     14  C   UNL     1     129.265 116.737 135.594  1.00  0.00     0.033 A 
ATOM     15  C   UNL     1     129.029 116.078 133.079  1.00  0.00     0.016 C 
ATOM     16  C   UNL     1     129.747 116.770 131.885  1.00  0.00     0.138 C 
ATOM     17  C   UNL     1     129.785 117.654 136.511  1.00  0.00     0.049 A 
ATOM     18  C   UNL     1     129.466 114.603 133.225  1.00  0.00     0.014 C 
ATOM     19  C   UNL     1     127.492 116.177 132.952  1.00  0.00     0.014 C 
ATOM     20  C   UNL     1     128.918 113.726 132.097  1.00  0.00     0.008 C 
ATOM     21  C   UNL     1     126.937 115.284 131.840  1.00  0.00     0.008 C 
ATOM     22  C   UNL     1     127.416 113.861 132.009  1.00  0.00    -0.030 C 
ATOM     23  C   UNL     1     126.646 112.766 131.306  1.00  0.00     0.007 C 
ATOM     24  C   UNL     1     126.557 112.899 132.800  1.00  0.00     0.007 C 
BRANCH  17  25
ATOM     25  N   UNL     1     129.509 117.454 137.894  1.00  0.00    -0.284 N 
ATOM     26  H   UNL     1     129.858 116.598 138.325  1.00  0.00     0.180 HD
BRANCH  25  27
ATOM     27  S   UNL     1     128.039 117.940 138.551  1.00  0.00     0.229 S 
ATOM     28  C   UNL     1     127.172 116.395 138.749  1.00  0.00     0.183 C 
ATOM     29  O   UNL     1     128.354 118.433 139.876  1.00  0.00    -0.207 OA
ATOM     30  O   UNL     1     127.318 118.759 137.601  1.00  0.00    -0.207 OA
ENDBRANCH  25  27
ENDBRANCH  17  25
ENDBRANCH   7   9
ENDBRANCH   1   7
BRANCH   3  31
ATOM     31  S   UNL     1     133.401 115.095 129.038  1.00  0.00     0.241 S 
ATOM     32  O   UNL     1     132.445 114.372 129.851  1.00  0.00    -0.207 OA
ATOM     33  O   UNL     1     133.354 115.030 127.597  1.00  0.00    -0.207 OA
BRANCH  31  34
ATOM     34  N   UNL     1     134.905 114.617 129.571  1.00  0.00    -0.206 NA
ATOM     35  H   UNL     1     135.579 115.380 129.629  1.00  0.00     0.141 HD
BRANCH  34  36
ATOM     36  C   UNL     1     135.390 113.244 129.816  1.00  0.00     0.025 C 
ATOM     37  C   UNL     1     134.196 112.330 130.108  1.00  0.00     0.028 C 
ATOM     38  C   UNL     1     136.421 113.150 130.940  1.00  0.00     0.028 C 
ATOM     39  C   UNL     1     136.057 112.780 128.508  1.00  0.00     0.028 C 
ENDBRANCH  34  36
ENDBRANCH  31  34
ENDBRANCH   3  31
TORSDOF 7
ENDMDL
MODEL 7
REMARK VINA RESULT:     -12.1      0.999      1.264
REMARK SMILES CC(C)(C)NS(=O)(=O)c1cccc(C(=O)N2CC3(CCC4(CC4)CC3)c3cc(NS(C)(=O)=O)ccc32)c1
REMARK SMILES IDX 13 1 37 2 9 3 10 4 11 5 12 6 14 7 15 8 16 9 36 10 35 11
REMARK SMILES IDX 26 12 34 13 27 14 18 15 17 16 28 17 19 18 25 19 20 20 24 21
REMARK SMILES IDX 21 22 22 23 23 24 29 25 30 27 31 28 32 29 33 30 6 31 7 32
REMARK SMILES IDX 8 33 5 34 2 36 1 37 3 38 4 39
REMARK H PARENT 29 26 5 35
REMARK Flexibility Score: inf
ROOT
ATOM      1  C   UNL     1     130.239 119.591 133.248  1.00  0.00     0.041 A 
ATOM      2  C   UNL     1     130.496 118.994 134.483  1.00  0.00     0.035 A 
ATOM      3  C   UNL     1     129.871 119.506 135.623  1.00  0.00     0.083 A 
ATOM      4  C   UNL     1     129.008 120.603 135.538  1.00  0.00     0.022 A 
ATOM      5  C   UNL     1     128.738 121.173 134.292  1.00  0.00     0.002 A 
ATOM      6  C   UNL     1     129.345 120.663 133.144  1.00  0.00     0.014 A 
ENDROOT
BRANCH   1   7
ATOM      7  C   UNL     1     130.872 119.065 132.021  1.00  0.00     0.258 C 
ATOM      8  O   UNL     1     131.618 119.834 131.423  1.00  0.00    -0.269 OA
BRANCH   7   9
ATOM      9  N   UNL     1     130.582 117.755 131.672  1.00  0.00    -0.307 N 
ATOM     10  C   UNL     1     131.451 116.885 130.993  1.00  0.00     0.048 A 
ATOM     11  C   UNL     1     132.697 117.157 130.452  1.00  0.00     0.029 A 
ATOM     12  C   UNL     1     130.892 115.610 130.894  1.00  0.00    -0.014 A 
ATOM     13  C   UNL     1     133.390 116.128 129.802  1.00  0.00     0.029 A 
ATOM     14  C   UNL     1     131.579 114.582 130.252  1.00  0.00     0.033 A 
ATOM     15  C   UNL     1     129.542 115.537 131.576  1.00  0.00     0.016 C 
ATOM     16  C   UNL     1     129.339 117.024 131.986  1.00  0.00     0.138 C 
ATOM     17  C   UNL     1     132.841 114.844 129.712  1.00  0.00     0.049 A 
ATOM     18  C   UNL     1     128.440 115.061 130.605  1.00  0.00     0.014 C 
ATOM     19  C   UNL     1     129.610 114.612 132.813  1.00  0.00     0.014 C 
ATOM     20  C   UNL     1     127.084 114.917 131.298  1.00  0.00     0.008 C 
ATOM     21  C   UNL     1     128.250 114.448 133.497  1.00  0.00     0.008 C 
ATOM     22  C   UNL     1     127.202 114.011 132.501  1.00  0.00    -0.030 C 
ATOM     23  C   UNL     1     125.938 113.374 133.035  1.00  0.00     0.007 C 
ATOM     24  C   UNL     1     126.953 112.530 132.316  1.00  0.00     0.007 C 
BRANCH  17  25
ATOM     25  N   UNL     1     133.530 113.780 129.063  1.00  0.00    -0.284 N 
ATOM     26  H   UNL     1     134.494 113.603 129.344  1.00  0.00     0.180 HD
BRANCH  25  27
ATOM     27  S   UNL     1     133.278 113.469 127.430  1.00  0.00     0.229 S 
ATOM     28  C   UNL     1     131.784 112.496 127.446  1.00  0.00     0.183 C 
ATOM     29  O   UNL     1     132.954 114.751 126.840  1.00  0.00    -0.207 OA
ATOM     30  O   UNL     1     134.355 112.658 126.908  1.00  0.00    -0.207 OA
ENDBRANCH  25  27
ENDBRANCH  17  25
ENDBRANCH   7   9
ENDBRANCH   1   7
BRANCH   3  31
ATOM     31  S   UNL     1     130.247 118.780 137.196  1.00  0.00     0.241 S 
ATOM     32  O   UNL     1     131.019 117.587 136.917  1.00  0.00    -0.207 OA
ATOM     33  O   UNL     1     130.756 119.810 138.071  1.00  0.00    -0.207 OA
BRANCH  31  34
ATOM     34  N   UNL     1     128.772 118.246 137.757  1.00  0.00    -0.206 NA
ATOM     35  H   UNL     1     128.336 118.882 138.424  1.00  0.00     0.141 HD
BRANCH  34  36
ATOM     36  C   UNL     1     128.126 116.941 137.518  1.00  0.00     0.025 C 
ATOM     37  C   UNL     1     127.202 116.610 138.694  1.00  0.00     0.028 C 
ATOM     38  C   UNL     1     129.118 115.802 137.281  1.00  0.00     0.028 C 
ATOM     39  C   UNL     1     127.269 117.108 136.250  1.00  0.00     0.028 C 
ENDBRANCH  34  36
ENDBRANCH  31  34
ENDBRANCH   3  31
TORSDOF 7
ENDMDL
MODEL 8
REMARK VINA RESULT:     -12.1      1.742      7.769
REMARK SMILES CC(C)(C)NS(=O)(=O)c1cccc(C(=O)N2CC3(CCC4(CC4)CC3)c3cc(NS(C)(=O)=O)ccc32)c1
REMARK SMILES IDX 13 1 37 2 9 3 10 4 11 5 12 6 14 7 15 8 16 9 36 10 35 11
REMARK SMILES IDX 26 12 34 13 27 14 18 15 17 16 28 17 19 18 25 19 20 20 24 21
REMARK SMILES IDX 21 22 22 23 23 24 29 25 30 27 31 28 32 29 33 30 6 31 7 32
REMARK SMILES IDX 8 33 5 34 2 36 1 37 3 38 4 39
REMARK H PARENT 29 26 5 35
REMARK Flexibility Score: inf
ROOT
ATOM      1  C   UNL     1     132.307 118.660 130.616  1.00  0.00     0.041 A 
ATOM      2  C   UNL     1     132.326 117.297 130.315  1.00  0.00     0.035 A 
ATOM      3  C   UNL     1     133.385 116.787 129.559  1.00  0.00     0.083 A 
ATOM      4  C   UNL     1     134.408 117.623 129.101  1.00  0.00     0.022 A 
ATOM      5  C   UNL     1     134.392 118.979 129.433  1.00  0.00     0.002 A 
ATOM      6  C   UNL     1     133.347 119.499 130.198  1.00  0.00     0.014 A 
ENDROOT
BRANCH   1   7
ATOM      7  C   UNL     1     131.210 119.228 131.425  1.00  0.00     0.258 C 
ATOM      8  O   UNL     1     131.023 120.435 131.315  1.00  0.00    -0.269 OA
BRANCH   7   9
ATOM      9  N   UNL     1     130.485 118.347 132.214  1.00  0.00    -0.307 N 
ATOM     10  C   UNL     1     130.103 118.577 133.546  1.00  0.00     0.048 A 
ATOM     11  C   UNL     1     130.437 119.640 134.369  1.00  0.00     0.029 A 
ATOM     12  C   UNL     1     129.294 117.540 134.011  1.00  0.00    -0.014 A 
ATOM     13  C   UNL     1     129.947 119.658 135.681  1.00  0.00     0.029 A 
ATOM     14  C   UNL     1     128.801 117.554 135.314  1.00  0.00     0.033 A 
ATOM     15  C   UNL     1     129.040 116.504 132.937  1.00  0.00     0.016 C 
ATOM     16  C   UNL     1     129.945 117.040 131.791  1.00  0.00     0.138 C 
ATOM     17  C   UNL     1     129.124 118.628 136.149  1.00  0.00     0.049 A 
ATOM     18  C   UNL     1     129.477 115.094 133.392  1.00  0.00     0.014 C 
ATOM     19  C   UNL     1     127.549 116.501 132.528  1.00  0.00     0.014 C 
ATOM     20  C   UNL     1     129.164 114.026 132.342  1.00  0.00     0.008 C 
ATOM     21  C   UNL     1     127.226 115.420 131.495  1.00  0.00     0.008 C 
ATOM     22  C   UNL     1     127.700 114.067 131.972  1.00  0.00    -0.030 C 
ATOM     23  C   UNL     1     127.096 112.838 131.331  1.00  0.00     0.007 C 
ATOM     24  C   UNL     1     126.735 113.196 132.745  1.00  0.00     0.007 C 
BRANCH  17  25
ATOM     25  N   UNL     1     128.607 118.628 137.476  1.00  0.00    -0.284 N 
ATOM     26  H   UNL     1     129.025 119.275 138.144  1.00  0.00     0.180 HD
BRANCH  25  27
ATOM     27  S   UNL     1     128.120 117.192 138.204  1.00  0.00     0.229 S 
ATOM     28  C   UNL     1     127.926 117.669 139.911  1.00  0.00     0.183 C 
ATOM     29  O   UNL     1     126.798 116.924 137.676  1.00  0.00    -0.207 OA
ATOM     30  O   UNL     1     129.175 116.208 138.113  1.00  0.00    -0.207 OA
ENDBRANCH  25  27
ENDBRANCH  17  25
ENDBRANCH   7   9
ENDBRANCH   1   7
BRANCH   3  31
ATOM     31  S   UNL     1     133.373 115.067 129.132  1.00  0.00     0.241 S 
ATOM     32  O   UNL     1     132.293 114.469 129.889  1.00  0.00    -0.207 OA
ATOM     33  O   UNL     1     133.430 114.947 127.694  1.00  0.00    -0.207 OA
BRANCH  31  34
ATOM     34  N   UNL     1     134.779 114.475 129.800  1.00  0.00    -0.206 NA
ATOM     35  H   UNL     1     135.427 115.204 130.098  1.00  0.00     0.141 HD
BRANCH  34  36
ATOM     36  C   UNL     1     135.234 113.072 129.868  1.00  0.00     0.025 C 
ATOM     37  C   UNL     1     135.691 112.620 128.478  1.00  0.00     0.028 C 
ATOM     38  C   UNL     1     134.180 112.114 130.423  1.00  0.00     0.028 C 
ATOM     39  C   UNL     1     136.449 113.056 130.815  1.00  0.00     0.028 C 
ENDBRANCH  34  36
ENDBRANCH  31  34
ENDBRANCH   3  31
TORSDOF 7
ENDMDL
MODEL 9
REMARK VINA RESULT:     -12.0      2.078      7.417
REMARK SMILES CC(C)(C)NS(=O)(=O)c1cccc(C(=O)N2CC3(CCC4(CC4)CC3)c3cc(NS(C)(=O)=O)ccc32)c1
REMARK SMILES IDX 13 1 37 2 9 3 10 4 11 5 12 6 14 7 15 8 16 9 36 10 35 11
REMARK SMILES IDX 26 12 34 13 27 14 18 15 17 16 28 17 19 18 25 19 20 20 24 21
REMARK SMILES IDX 21 22 22 23 23 24 29 25 30 27 31 28 32 29 33 30 6 31 7 32
REMARK SMILES IDX 8 33 5 34 2 36 1 37 3 38 4 39
REMARK H PARENT 29 26 5 35
REMARK Flexibility Score: inf
ROOT
ATOM      1  C   UNL     1     131.897 119.181 131.258  1.00  0.00     0.041 A 
ATOM      2  C   UNL     1     132.197 117.960 130.651  1.00  0.00     0.035 A 
ATOM      3  C   UNL     1     133.391 117.837 129.936  1.00  0.00     0.083 A 
ATOM      4  C   UNL     1     134.272 118.916 129.818  1.00  0.00     0.022 A 
ATOM      5  C   UNL     1     133.974 120.123 130.453  1.00  0.00     0.002 A 
ATOM      6  C   UNL     1     132.790 120.256 131.181  1.00  0.00     0.014 A 
ENDROOT
BRANCH   1   7
ATOM      7  C   UNL     1     130.650 119.339 132.033  1.00  0.00     0.258 C 
ATOM      8  O   UNL     1     130.141 120.456 132.019  1.00  0.00    -0.269 OA
BRANCH   7   9
ATOM      9  N   UNL     1     130.162 118.216 132.683  1.00  0.00    -0.307 N 
ATOM     10  C   UNL     1     130.099 118.049 134.076  1.00  0.00     0.048 A 
ATOM     11  C   UNL     1     130.581 118.885 135.070  1.00  0.00     0.029 A 
ATOM     12  C   UNL     1     129.458 116.852 134.399  1.00  0.00    -0.014 A 
ATOM     13  C   UNL     1     130.414 118.509 136.409  1.00  0.00     0.029 A 
ATOM     14  C   UNL     1     129.287 116.475 135.729  1.00  0.00     0.033 A 
ATOM     15  C   UNL     1     128.994 116.115 133.161  1.00  0.00     0.016 C 
ATOM     16  C   UNL     1     129.583 117.020 132.041  1.00  0.00     0.138 C 
ATOM     17  C   UNL     1     129.761 117.317 136.738  1.00  0.00     0.049 A 
ATOM     18  C   UNL     1     129.575 114.685 133.098  1.00  0.00     0.014 C 
ATOM     19  C   UNL     1     127.450 116.074 133.102  1.00  0.00     0.014 C 
ATOM     20  C   UNL     1     129.059 113.905 131.887  1.00  0.00     0.008 C 
ATOM     21  C   UNL     1     126.929 115.276 131.904  1.00  0.00     0.008 C 
ATOM     22  C   UNL     1     127.548 113.899 131.871  1.00  0.00    -0.030 C 
ATOM     23  C   UNL     1     126.853 112.828 131.060  1.00  0.00     0.007 C 
ATOM     24  C   UNL     1     126.823 112.764 132.562  1.00  0.00     0.007 C 
BRANCH  17  25
ATOM     25  N   UNL     1     129.572 116.918 138.092  1.00  0.00    -0.284 N 
ATOM     26  H   UNL     1     130.126 116.132 138.434  1.00  0.00     0.180 HD
BRANCH  25  27
ATOM     27  S   UNL     1     128.044 116.969 138.793  1.00  0.00     0.229 S 
ATOM     28  C   UNL     1     127.081 117.827 137.563  1.00  0.00     0.183 C 
ATOM     29  O   UNL     1     127.588 115.595 138.820  1.00  0.00    -0.207 OA
ATOM     30  O   UNL     1     128.078 117.769 139.997  1.00  0.00    -0.207 OA
ENDBRANCH  25  27
ENDBRANCH  17  25
ENDBRANCH   7   9
ENDBRANCH   1   7
BRANCH   3  31
ATOM     31  S   UNL     1     133.739 116.302 129.120  1.00  0.00     0.241 S 
ATOM     32  O   UNL     1     133.338 116.478 127.740  1.00  0.00    -0.207 OA
ATOM     33  O   UNL     1     135.080 115.890 129.461  1.00  0.00    -0.207 OA
BRANCH  31  34
ATOM     34  N   UNL     1     132.641 115.237 129.780  1.00  0.00    -0.206 NA
ATOM     35  H   UNL     1     132.168 115.599 130.607  1.00  0.00     0.141 HD
BRANCH  34  36
ATOM     36  C   UNL     1     132.398 113.830 129.402  1.00  0.00     0.025 C 
ATOM     37  C   UNL     1     132.929 112.910 130.505  1.00  0.00     0.028 C 
ATOM     38  C   UNL     1     133.000 113.448 128.050  1.00  0.00     0.028 C 
ATOM     39  C   UNL     1     130.869 113.664 129.314  1.00  0.00     0.028 C 
ENDBRANCH  34  36
ENDBRANCH  31  34
ENDBRANCH   3  31
TORSDOF 7
ENDMDL
