MODEL 1
REMARK VINA RESULT:     -12.6      0.000      0.000
REMARK SMILES O=S(=O)(CCO)Nc1ccc(-c2nc3c(N4CCC(F)(F)CC4)cccc3s2)c(N2CCC3(CC2)CC3)c1
REMARK SMILES IDX 2 1 1 2 3 3 7 4 8 6 11 7 10 8 29 9 9 10 38 11 12 12 13 13
REMARK SMILES IDX 28 14 14 15 27 16 15 17 26 18 24 19 25 20 16 21 17 22 23 23
REMARK SMILES IDX 18 24 22 25 19 26 20 27 21 28 30 29 31 30 35 31 32 32 34 33
REMARK SMILES IDX 33 34 36 35 37 36 4 37 5 38 6 39
REMARK H PARENT 7 5 6 40
REMARK Flexibility Score: inf
ROOT
ATOM      1  S   UNL     1     128.119 117.458 138.878  1.00  0.00     0.234 S 
ATOM      2  O   UNL     1     129.242 116.766 138.279  1.00  0.00    -0.207 OA
ATOM      3  O   UNL     1     128.314 118.334 140.012  1.00  0.00    -0.207 OA
ENDROOT
BRANCH   1   4
ATOM      4  N   UNL     1     127.411 118.327 137.606  1.00  0.00    -0.283 N 
ATOM      5  H   UNL     1     126.457 117.984 137.476  1.00  0.00     0.180 HD
BRANCH   4   6
ATOM      6  C   UNL     1     128.165 118.440 136.400  1.00  0.00     0.051 A 
ATOM      7  C   UNL     1     129.714 118.629 134.070  1.00  0.00     0.034 A 
ATOM      8  C   UNL     1     129.773 119.626 135.064  1.00  0.00     0.015 A 
ATOM      9  C   UNL     1     128.883 117.494 134.262  1.00  0.00     0.049 A 
ATOM     10  C   UNL     1     129.004 119.533 136.224  1.00  0.00     0.027 A 
ATOM     11  C   UNL     1     128.113 117.427 135.439  1.00  0.00     0.053 A 
BRANCH   7  12
ATOM     12  C   UNL     1     130.542 118.828 132.872  1.00  0.00     0.126 A 
ATOM     13  N   UNL     1     131.125 117.849 132.212  1.00  0.00    -0.234 NA
ATOM     14  S   UNL     1     130.916 120.404 132.313  1.00  0.00    -0.114 S 
ATOM     15  C   UNL     1     131.873 118.342 131.143  1.00  0.00     0.105 A 
ATOM     16  C   UNL     1     131.866 119.737 131.042  1.00  0.00     0.057 A 
ATOM     17  C   UNL     1     132.603 117.568 130.184  1.00  0.00     0.064 A 
ATOM     18  C   UNL     1     132.557 120.426 130.033  1.00  0.00     0.021 A 
ATOM     19  C   UNL     1     133.300 118.292 129.184  1.00  0.00     0.028 A 
ATOM     20  C   UNL     1     133.277 119.681 129.106  1.00  0.00     0.004 A 
BRANCH  17  21
ATOM     21  N   UNL     1     132.723 116.145 130.146  1.00  0.00    -0.369 N 
ATOM     22  C   UNL     1     131.447 115.408 130.142  1.00  0.00     0.123 C 
ATOM     23  C   UNL     1     133.642 115.707 129.078  1.00  0.00     0.123 C 
ATOM     24  C   UNL     1     131.734 113.940 130.413  1.00  0.00     0.098 C 
ATOM     25  C   UNL     1     133.987 114.243 129.298  1.00  0.00     0.098 C 
ATOM     26  C   UNL     1     132.719 113.423 129.388  1.00  0.00     0.251 C 
ATOM     27  F   UNL     1     132.123 113.385 128.166  1.00  0.00    -0.207 F 
ATOM     28  F   UNL     1     133.041 112.135 129.685  1.00  0.00    -0.207 F 
ENDBRANCH  17  21
ENDBRANCH   7  12
BRANCH   9  29
ATOM     29  N   UNL     1     128.887 116.429 133.338  1.00  0.00    -0.371 N 
ATOM     30  C   UNL     1     127.907 116.461 132.234  1.00  0.00     0.117 C 
ATOM     31  C   UNL     1     129.071 115.122 134.012  1.00  0.00     0.117 C 
ATOM     32  C   UNL     1     126.855 115.355 132.359  1.00  0.00     0.028 C 
ATOM     33  C   UNL     1     128.897 113.970 133.016  1.00  0.00     0.028 C 
ATOM     34  C   UNL     1     127.504 113.982 132.408  1.00  0.00    -0.026 C 
ATOM     35  C   UNL     1     126.601 112.787 132.637  1.00  0.00     0.008 C 
ATOM     36  C   UNL     1     127.220 113.001 131.288  1.00  0.00     0.008 C 
ENDBRANCH   9  29
ENDBRANCH   4   6
ENDBRANCH   1   4
BRANCH   1  37
ATOM     37  C   UNL     1     126.872 116.249 139.273  1.00  0.00     0.188 C 
BRANCH  37  38
ATOM     38  C   UNL     1     126.349 115.551 138.037  1.00  0.00     0.174 C 
BRANCH  38  39
ATOM     39  O   UNL     1     127.447 114.988 137.323  1.00  0.00    -0.395 OA
ATOM     40  H   UNL     1     127.903 115.720 136.872  1.00  0.00     0.210 HD
ENDBRANCH  38  39
ENDBRANCH  37  38
ENDBRANCH   1  37
TORSDOF 8
ENDMDL
MODEL 2
REMARK VINA RESULT:     -12.1      0.857      1.219
REMARK SMILES O=S(=O)(CCO)Nc1ccc(-c2nc3c(N4CCC(F)(F)CC4)cccc3s2)c(N2CCC3(CC2)CC3)c1
REMARK SMILES IDX 2 1 1 2 3 3 7 4 8 6 11 7 10 8 29 9 9 10 38 11 12 12 13 13
REMARK SMILES IDX 28 14 14 15 27 16 15 17 26 18 24 19 25 20 16 21 17 22 23 23
REMARK SMILES IDX 18 24 22 25 19 26 20 27 21 28 30 29 31 30 35 31 32 32 34 33
REMARK SMILES IDX 33 34 36 35 37 36 4 37 5 38 6 39
REMARK H PARENT 7 5 6 40
REMARK Flexibility Score: inf
ROOT
ATOM      1  S   UNL     1     127.501 116.849 138.626  1.00  0.00     0.234 S 
ATOM      2  O   UNL     1     128.072 117.523 139.774  1.00  0.00    -0.207 OA
ATOM      3  O   UNL     1     126.394 115.931 138.786  1.00  0.00    -0.207 OA
ENDROOT
BRANCH   1   4
ATOM      4  N   UNL     1     127.056 118.092 137.563  1.00  0.00    -0.283 N 
ATOM      5  H   UNL     1     126.049 118.027 137.398  1.00  0.00     0.180 HD
BRANCH   4   6
ATOM      6  C   UNL     1     127.837 118.243 136.378  1.00  0.00     0.051 A 
ATOM      7  C   UNL     1     129.440 118.508 134.093  1.00  0.00     0.034 A 
ATOM      8  C   UNL     1     129.437 119.497 135.097  1.00  0.00     0.015 A 
ATOM      9  C   UNL     1     128.645 117.343 134.253  1.00  0.00     0.049 A 
ATOM     10  C   UNL     1     128.642 119.366 136.234  1.00  0.00     0.027 A 
ATOM     11  C   UNL     1     127.847 117.238 135.408  1.00  0.00     0.053 A 
BRANCH   7  12
ATOM     12  C   UNL     1     130.292 118.747 132.919  1.00  0.00     0.126 A 
ATOM     13  N   UNL     1     130.926 117.796 132.267  1.00  0.00    -0.234 NA
ATOM     14  S   UNL     1     130.624 120.341 132.384  1.00  0.00    -0.114 S 
ATOM     15  C   UNL     1     131.685 118.325 131.223  1.00  0.00     0.105 A 
ATOM     16  C   UNL     1     131.631 119.720 131.134  1.00  0.00     0.057 A 
ATOM     17  C   UNL     1     132.467 117.587 130.277  1.00  0.00     0.064 A 
ATOM     18  C   UNL     1     132.324 120.442 130.150  1.00  0.00     0.021 A 
ATOM     19  C   UNL     1     133.164 118.344 129.302  1.00  0.00     0.028 A 
ATOM     20  C   UNL     1     133.095 119.732 129.236  1.00  0.00     0.004 A 
BRANCH  17  21
ATOM     21  N   UNL     1     132.638 116.169 130.230  1.00  0.00    -0.369 N 
ATOM     22  C   UNL     1     131.389 115.387 130.202  1.00  0.00     0.123 C 
ATOM     23  C   UNL     1     133.587 115.772 129.173  1.00  0.00     0.123 C 
ATOM     24  C   UNL     1     131.725 113.928 130.467  1.00  0.00     0.098 C 
ATOM     25  C   UNL     1     133.981 114.320 129.386  1.00  0.00     0.098 C 
ATOM     26  C   UNL     1     132.742 113.454 129.451  1.00  0.00     0.251 C 
ATOM     27  F   UNL     1     132.165 113.405 128.221  1.00  0.00    -0.207 F 
ATOM     28  F   UNL     1     133.105 112.177 129.744  1.00  0.00    -0.207 F 
ENDBRANCH  17  21
ENDBRANCH   7  12
BRANCH   9  29
ATOM     29  N   UNL     1     128.712 116.287 133.320  1.00  0.00    -0.371 N 
ATOM     30  C   UNL     1     127.777 116.308 132.177  1.00  0.00     0.117 C 
ATOM     31  C   UNL     1     128.897 114.978 133.990  1.00  0.00     0.117 C 
ATOM     32  C   UNL     1     126.747 115.178 132.249  1.00  0.00     0.028 C 
ATOM     33  C   UNL     1     128.791 113.833 132.977  1.00  0.00     0.028 C 
ATOM     34  C   UNL     1     127.425 113.820 132.312  1.00  0.00    -0.026 C 
ATOM     35  C   UNL     1     126.540 112.602 132.492  1.00  0.00     0.008 C 
ATOM     36  C   UNL     1     127.209 112.843 131.172  1.00  0.00     0.008 C 
ENDBRANCH   9  29
ENDBRANCH   4   6
ENDBRANCH   1   4
BRANCH   1  37
ATOM     37  C   UNL     1     128.821 116.035 137.750  1.00  0.00     0.188 C 
BRANCH  37  38
ATOM     38  C   UNL     1     130.163 116.264 138.408  1.00  0.00     0.174 C 
BRANCH  38  39
ATOM     39  O   UNL     1     130.631 117.566 138.065  1.00  0.00    -0.395 OA
ATOM     40  H   UNL     1     130.118 118.205 138.591  1.00  0.00     0.210 HD
ENDBRANCH  38  39
ENDBRANCH  37  38
ENDBRANCH   1  37
TORSDOF 8
ENDMDL
MODEL 3
REMARK VINA RESULT:     -12.1      4.421      7.837
REMARK SMILES O=S(=O)(CCO)Nc1ccc(-c2nc3c(N4CCC(F)(F)CC4)cccc3s2)c(N2CCC3(CC2)CC3)c1
REMARK SMILES IDX 2 1 1 2 3 3 7 4 8 6 11 7 10 8 29 9 9 10 38 11 12 12 13 13
REMARK SMILES IDX 28 14 14 15 27 16 15 17 26 18 24 19 25 20 16 21 17 22 23 23
REMARK SMILES IDX 18 24 22 25 19 26 20 27 21 28 30 29 31 30 35 31 32 32 34 33
REMARK SMILES IDX 33 34 36 35 37 36 4 37 5 38 6 39
REMARK H PARENT 7 5 6 40
REMARK Flexibility Score: inf
ROOT
ATOM      1  S   UNL     1     133.519 113.048 128.927  1.00  0.00     0.234 S 
ATOM      2  O   UNL     1     133.177 113.041 130.335  1.00  0.00    -0.207 OA
ATOM      3  O   UNL     1     132.843 112.166 128.001  1.00  0.00    -0.207 OA
ENDROOT
BRANCH   1   4
ATOM      4  N   UNL     1     133.310 114.656 128.433  1.00  0.00    -0.283 N 
ATOM      5  H   UNL     1     134.187 114.980 128.018  1.00  0.00     0.180 HD
BRANCH   4   6
ATOM      6  C   UNL     1     132.742 115.557 129.383  1.00  0.00     0.051 A 
ATOM      7  C   UNL     1     131.583 117.364 131.187  1.00  0.00     0.034 A 
ATOM      8  C   UNL     1     132.727 117.714 130.442  1.00  0.00     0.015 A 
ATOM      9  C   UNL     1     130.986 116.090 131.000  1.00  0.00     0.049 A 
ATOM     10  C   UNL     1     133.304 116.817 129.544  1.00  0.00     0.027 A 
ATOM     11  C   UNL     1     131.591 115.201 130.091  1.00  0.00     0.053 A 
BRANCH   7  12
ATOM     12  C   UNL     1     131.062 118.368 132.126  1.00  0.00     0.126 A 
ATOM     13  N   UNL     1     130.457 118.071 133.256  1.00  0.00    -0.234 NA
ATOM     14  S   UNL     1     131.101 120.038 131.739  1.00  0.00    -0.114 S 
ATOM     15  C   UNL     1     130.041 119.226 133.919  1.00  0.00     0.105 A 
ATOM     16  C   UNL     1     130.321 120.409 133.228  1.00  0.00     0.057 A 
ATOM     17  C   UNL     1     129.392 119.290 135.195  1.00  0.00     0.064 A 
ATOM     18  C   UNL     1     129.984 121.676 133.729  1.00  0.00     0.021 A 
ATOM     19  C   UNL     1     129.053 120.582 135.669  1.00  0.00     0.028 A 
ATOM     20  C   UNL     1     129.342 121.744 134.960  1.00  0.00     0.004 A 
BRANCH  17  21
ATOM     21  N   UNL     1     129.026 118.186 136.025  1.00  0.00    -0.369 N 
ATOM     22  C   UNL     1     130.100 117.674 136.895  1.00  0.00     0.123 C 
ATOM     23  C   UNL     1     127.772 118.450 136.756  1.00  0.00     0.123 C 
ATOM     24  C   UNL     1     129.661 116.336 137.470  1.00  0.00     0.098 C 
ATOM     25  C   UNL     1     127.264 117.145 137.346  1.00  0.00     0.098 C 
ATOM     26  C   UNL     1     128.344 116.508 138.194  1.00  0.00     0.251 C 
ATOM     27  F   UNL     1     128.536 117.259 139.311  1.00  0.00    -0.207 F 
ATOM     28  F   UNL     1     127.910 115.295 138.630  1.00  0.00    -0.207 F 
ENDBRANCH  17  21
ENDBRANCH   7  12
BRANCH   9  29
ATOM     29  N   UNL     1     129.779 115.754 131.647  1.00  0.00    -0.371 N 
ATOM     30  C   UNL     1     129.815 114.703 132.684  1.00  0.00     0.117 C 
ATOM     31  C   UNL     1     128.646 115.694 130.694  1.00  0.00     0.117 C 
ATOM     32  C   UNL     1     129.062 113.440 132.257  1.00  0.00     0.028 C 
ATOM     33  C   UNL     1     127.387 115.158 131.384  1.00  0.00     0.028 C 
ATOM     34  C   UNL     1     127.614 113.753 131.916  1.00  0.00    -0.026 C 
ATOM     35  C   UNL     1     126.762 112.623 131.374  1.00  0.00     0.008 C 
ATOM     36  C   UNL     1     126.516 113.136 132.761  1.00  0.00     0.008 C 
ENDBRANCH   9  29
ENDBRANCH   4   6
ENDBRANCH   1   4
BRANCH   1  37
ATOM     37  C   UNL     1     135.280 112.817 128.785  1.00  0.00     0.188 C 
BRANCH  37  38
ATOM     38  C   UNL     1     136.037 113.564 129.859  1.00  0.00     0.174 C 
BRANCH  38  39
ATOM     39  O   UNL     1     136.237 114.910 129.434  1.00  0.00    -0.395 OA
ATOM     40  H   UNL     1     137.045 115.233 129.871  1.00  0.00     0.210 HD
ENDBRANCH  38  39
ENDBRANCH  37  38
ENDBRANCH   1  37
TORSDOF 8
ENDMDL
MODEL 4
REMARK VINA RESULT:     -12.0      4.479      7.709
REMARK SMILES O=S(=O)(CCO)Nc1ccc(-c2nc3c(N4CCC(F)(F)CC4)cccc3s2)c(N2CCC3(CC2)CC3)c1
REMARK SMILES IDX 2 1 1 2 3 3 7 4 8 6 11 7 10 8 29 9 9 10 38 11 12 12 13 13
REMARK SMILES IDX 28 14 14 15 27 16 15 17 26 18 24 19 25 20 16 21 17 22 23 23
REMARK SMILES IDX 18 24 22 25 19 26 20 27 21 28 30 29 31 30 35 31 32 32 34 33
REMARK SMILES IDX 33 34 36 35 37 36 4 37 5 38 6 39
REMARK H PARENT 7 5 6 40
REMARK Flexibility Score: inf
ROOT
ATOM      1  S   UNL     1     134.198 113.264 128.604  1.00  0.00     0.234 S 
ATOM      2  O   UNL     1     133.317 112.459 129.425  1.00  0.00    -0.207 OA
ATOM      3  O   UNL     1     134.882 112.684 127.469  1.00  0.00    -0.207 OA
ENDROOT
BRANCH   1   4
ATOM      4  N   UNL     1     133.245 114.567 128.085  1.00  0.00    -0.283 N 
ATOM      5  H   UNL     1     133.725 115.026 127.308  1.00  0.00     0.180 HD
BRANCH   4   6
ATOM      6  C   UNL     1     132.768 115.461 129.091  1.00  0.00     0.051 A 
ATOM      7  C   UNL     1     131.784 117.257 131.007  1.00  0.00     0.034 A 
ATOM      8  C   UNL     1     132.878 117.597 130.186  1.00  0.00     0.015 A 
ATOM      9  C   UNL     1     131.148 115.999 130.842  1.00  0.00     0.049 A 
ATOM     10  C   UNL     1     133.368 116.706 129.232  1.00  0.00     0.027 A 
ATOM     11  C   UNL     1     131.664 115.115 129.875  1.00  0.00     0.053 A 
BRANCH   7  12
ATOM     12  C   UNL     1     131.356 118.253 132.000  1.00  0.00     0.126 A 
ATOM     13  N   UNL     1     130.649 117.964 133.071  1.00  0.00    -0.234 NA
ATOM     14  S   UNL     1     131.655 119.923 131.754  1.00  0.00    -0.114 S 
ATOM     15  C   UNL     1     130.362 119.114 133.807  1.00  0.00     0.105 A 
ATOM     16  C   UNL     1     130.848 120.291 133.230  1.00  0.00     0.057 A 
ATOM     17  C   UNL     1     129.654 119.176 135.050  1.00  0.00     0.064 A 
ATOM     18  C   UNL     1     130.665 121.553 133.817  1.00  0.00     0.021 A 
ATOM     19  C   UNL     1     129.474 120.465 135.613  1.00  0.00     0.028 A 
ATOM     20  C   UNL     1     129.967 121.622 135.017  1.00  0.00     0.004 A 
BRANCH  17  21
ATOM     21  N   UNL     1     129.086 118.078 135.768  1.00  0.00    -0.369 N 
ATOM     22  C   UNL     1     128.046 118.441 136.747  1.00  0.00     0.123 C 
ATOM     23  C   UNL     1     128.666 116.996 134.858  1.00  0.00     0.123 C 
ATOM     24  C   UNL     1     127.772 117.234 137.631  1.00  0.00     0.098 C 
ATOM     25  C   UNL     1     128.390 115.746 135.677  1.00  0.00     0.098 C 
ATOM     26  C   UNL     1     127.385 116.055 136.765  1.00  0.00     0.251 C 
ATOM     27  F   UNL     1     126.170 116.287 136.199  1.00  0.00    -0.207 F 
ATOM     28  F   UNL     1     127.226 114.956 137.550  1.00  0.00    -0.207 F 
ENDBRANCH  17  21
ENDBRANCH   7  12
BRANCH   9  29
ATOM     29  N   UNL     1     129.984 115.675 131.570  1.00  0.00    -0.371 N 
ATOM     30  C   UNL     1     130.017 114.482 132.440  1.00  0.00     0.117 C 
ATOM     31  C   UNL     1     128.761 115.857 130.754  1.00  0.00     0.117 C 
ATOM     32  C   UNL     1     129.099 113.367 131.930  1.00  0.00     0.028 C 
ATOM     33  C   UNL     1     127.529 115.335 131.502  1.00  0.00     0.028 C 
ATOM     34  C   UNL     1     127.664 113.851 131.804  1.00  0.00    -0.026 C 
ATOM     35  C   UNL     1     126.650 112.893 131.212  1.00  0.00     0.008 C 
ATOM     36  C   UNL     1     126.600 113.213 132.676  1.00  0.00     0.008 C 
ENDBRANCH   9  29
ENDBRANCH   4   6
ENDBRANCH   1   4
BRANCH   1  37
ATOM     37  C   UNL     1     135.388 114.047 129.674  1.00  0.00     0.188 C 
BRANCH  37  38
ATOM     38  C   UNL     1     136.178 113.037 130.476  1.00  0.00     0.174 C 
BRANCH  38  39
ATOM     39  O   UNL     1     136.331 111.848 129.704  1.00  0.00    -0.395 OA
ATOM     40  H   UNL     1     136.749 111.184 130.278  1.00  0.00     0.210 HD
ENDBRANCH  38  39
ENDBRANCH  37  38
ENDBRANCH   1  37
TORSDOF 8
ENDMDL
MODEL 5
REMARK VINA RESULT:     -11.8      0.549      1.040
REMARK SMILES O=S(=O)(CCO)Nc1ccc(-c2nc3c(N4CCC(F)(F)CC4)cccc3s2)c(N2CCC3(CC2)CC3)c1
REMARK SMILES IDX 2 1 1 2 3 3 7 4 8 6 11 7 10 8 29 9 9 10 38 11 12 12 13 13
REMARK SMILES IDX 28 14 14 15 27 16 15 17 26 18 24 19 25 20 16 21 17 22 23 23
REMARK SMILES IDX 18 24 22 25 19 26 20 27 21 28 30 29 31 30 35 31 32 32 34 33
REMARK SMILES IDX 33 34 36 35 37 36 4 37 5 38 6 39
REMARK H PARENT 7 5 6 40
REMARK Flexibility Score: inf
ROOT
ATOM      1  S   UNL     1     128.115 117.538 138.905  1.00  0.00     0.234 S 
ATOM      2  O   UNL     1     129.343 116.980 138.378  1.00  0.00    -0.207 OA
ATOM      3  O   UNL     1     128.134 118.375 140.085  1.00  0.00    -0.207 OA
ENDROOT
BRANCH   1   4
ATOM      4  N   UNL     1     127.433 118.397 137.613  1.00  0.00    -0.283 N 
ATOM      5  H   UNL     1     126.493 118.031 137.446  1.00  0.00     0.180 HD
BRANCH   4   6
ATOM      6  C   UNL     1     128.228 118.534 136.435  1.00  0.00     0.051 A 
ATOM      7  C   UNL     1     129.855 118.772 134.164  1.00  0.00     0.034 A 
ATOM      8  C   UNL     1     129.864 119.758 135.170  1.00  0.00     0.015 A 
ATOM      9  C   UNL     1     129.035 117.623 134.314  1.00  0.00     0.049 A 
ATOM     10  C   UNL     1     129.056 119.641 136.301  1.00  0.00     0.027 A 
ATOM     11  C   UNL     1     128.225 117.531 135.462  1.00  0.00     0.053 A 
BRANCH   7  12
ATOM     12  C   UNL     1     130.723 118.996 132.999  1.00  0.00     0.126 A 
ATOM     13  N   UNL     1     131.071 118.051 132.151  1.00  0.00    -0.234 NA
ATOM     14  S   UNL     1     131.458 120.521 132.731  1.00  0.00    -0.114 S 
ATOM     15  C   UNL     1     131.928 118.551 131.170  1.00  0.00     0.105 A 
ATOM     16  C   UNL     1     132.245 119.903 131.329  1.00  0.00     0.057 A 
ATOM     17  C   UNL     1     132.471 117.824 130.061  1.00  0.00     0.064 A 
ATOM     18  C   UNL     1     133.089 120.592 130.445  1.00  0.00     0.021 A 
ATOM     19  C   UNL     1     133.329 118.543 129.192  1.00  0.00     0.028 A 
ATOM     20  C   UNL     1     133.630 119.889 129.374  1.00  0.00     0.004 A 
BRANCH  17  21
ATOM     21  N   UNL     1     132.258 116.444 129.756  1.00  0.00    -0.369 N 
ATOM     22  C   UNL     1     133.471 115.689 129.393  1.00  0.00     0.123 C 
ATOM     23  C   UNL     1     131.457 115.776 130.800  1.00  0.00     0.123 C 
ATOM     24  C   UNL     1     133.051 114.351 128.805  1.00  0.00     0.098 C 
ATOM     25  C   UNL     1     130.987 114.431 130.271  1.00  0.00     0.098 C 
ATOM     26  C   UNL     1     132.173 113.620 129.798  1.00  0.00     0.251 C 
ATOM     27  F   UNL     1     132.918 113.248 130.873  1.00  0.00    -0.207 F 
ATOM     28  F   UNL     1     131.727 112.465 129.235  1.00  0.00    -0.207 F 
ENDBRANCH  17  21
ENDBRANCH   7  12
BRANCH   9  29
ATOM     29  N   UNL     1     129.088 116.568 133.380  1.00  0.00    -0.371 N 
ATOM     30  C   UNL     1     128.156 116.605 132.235  1.00  0.00     0.117 C 
ATOM     31  C   UNL     1     129.254 115.255 134.047  1.00  0.00     0.117 C 
ATOM     32  C   UNL     1     127.109 115.489 132.303  1.00  0.00     0.028 C 
ATOM     33  C   UNL     1     129.133 114.114 133.032  1.00  0.00     0.028 C 
ATOM     34  C   UNL     1     127.768 114.121 132.364  1.00  0.00    -0.026 C 
ATOM     35  C   UNL     1     126.865 112.916 132.541  1.00  0.00     0.008 C 
ATOM     36  C   UNL     1     127.540 113.150 131.222  1.00  0.00     0.008 C 
ENDBRANCH   9  29
ENDBRANCH   4   6
ENDBRANCH   1   4
BRANCH   1  37
ATOM     37  C   UNL     1     126.959 116.204 139.147  1.00  0.00     0.188 C 
BRANCH  37  38
ATOM     38  C   UNL     1     126.671 115.466 137.859  1.00  0.00     0.174 C 
BRANCH  38  39
ATOM     39  O   UNL     1     127.845 114.768 137.452  1.00  0.00    -0.395 OA
ATOM     40  H   UNL     1     128.417 114.684 138.235  1.00  0.00     0.210 HD
ENDBRANCH  38  39
ENDBRANCH  37  38
ENDBRANCH   1  37
TORSDOF 8
ENDMDL
MODEL 6
REMARK VINA RESULT:     -11.6      4.352      7.790
REMARK SMILES O=S(=O)(CCO)Nc1ccc(-c2nc3c(N4CCC(F)(F)CC4)cccc3s2)c(N2CCC3(CC2)CC3)c1
REMARK SMILES IDX 2 1 1 2 3 3 7 4 8 6 11 7 10 8 29 9 9 10 38 11 12 12 13 13
REMARK SMILES IDX 28 14 14 15 27 16 15 17 26 18 24 19 25 20 16 21 17 22 23 23
REMARK SMILES IDX 18 24 22 25 19 26 20 27 21 28 30 29 31 30 35 31 32 32 34 33
REMARK SMILES IDX 33 34 36 35 37 36 4 37 5 38 6 39
REMARK H PARENT 7 5 6 40
REMARK Flexibility Score: inf
ROOT
ATOM      1  S   UNL     1     134.446 113.864 129.294  1.00  0.00     0.234 S 
ATOM      2  O   UNL     1     135.666 114.599 129.559  1.00  0.00    -0.207 OA
ATOM      3  O   UNL     1     133.803 113.102 130.343  1.00  0.00    -0.207 OA
ENDROOT
BRANCH   1   4
ATOM      4  N   UNL     1     133.363 115.017 128.686  1.00  0.00    -0.283 N 
ATOM      5  H   UNL     1     133.819 115.509 127.914  1.00  0.00     0.180 HD
BRANCH   4   6
ATOM      6  C   UNL     1     132.728 115.874 129.635  1.00  0.00     0.051 A 
ATOM      7  C   UNL     1     131.438 117.592 131.436  1.00  0.00     0.034 A 
ATOM      8  C   UNL     1     132.571 118.016 130.712  1.00  0.00     0.015 A 
ATOM      9  C   UNL     1     130.920 116.287 131.229  1.00  0.00     0.049 A 
ATOM     10  C   UNL     1     133.213 117.163 129.816  1.00  0.00     0.027 A 
ATOM     11  C   UNL     1     131.590 115.444 130.322  1.00  0.00     0.053 A 
BRANCH   7  12
ATOM     12  C   UNL     1     130.846 118.555 132.376  1.00  0.00     0.126 A 
ATOM     13  N   UNL     1     130.259 118.213 133.503  1.00  0.00    -0.234 NA
ATOM     14  S   UNL     1     130.770 120.224 131.994  1.00  0.00    -0.114 S 
ATOM     15  C   UNL     1     129.761 119.334 134.168  1.00  0.00     0.105 A 
ATOM     16  C   UNL     1     129.960 120.535 133.481  1.00  0.00     0.057 A 
ATOM     17  C   UNL     1     129.104 119.349 135.441  1.00  0.00     0.064 A 
ATOM     18  C   UNL     1     129.534 121.774 133.984  1.00  0.00     0.021 A 
ATOM     19  C   UNL     1     128.674 120.613 135.918  1.00  0.00     0.028 A 
ATOM     20  C   UNL     1     128.884 121.794 135.213  1.00  0.00     0.004 A 
BRANCH  17  21
ATOM     21  N   UNL     1     128.812 118.219 136.267  1.00  0.00    -0.369 N 
ATOM     22  C   UNL     1     128.305 118.541 137.612  1.00  0.00     0.123 C 
ATOM     23  C   UNL     1     127.976 117.232 135.558  1.00  0.00     0.123 C 
ATOM     24  C   UNL     1     128.340 117.279 138.458  1.00  0.00     0.098 C 
ATOM     25  C   UNL     1     127.980 115.932 136.345  1.00  0.00     0.098 C 
ATOM     26  C   UNL     1     127.545 116.190 137.770  1.00  0.00     0.251 C 
ATOM     27  F   UNL     1     126.225 116.516 137.784  1.00  0.00    -0.207 F 
ATOM     28  F   UNL     1     127.652 115.038 138.485  1.00  0.00    -0.207 F 
ENDBRANCH  17  21
ENDBRANCH   7  12
BRANCH   9  29
ATOM     29  N   UNL     1     129.726 115.874 131.854  1.00  0.00    -0.371 N 
ATOM     30  C   UNL     1     129.785 114.723 132.777  1.00  0.00     0.117 C 
ATOM     31  C   UNL     1     128.580 115.902 130.915  1.00  0.00     0.117 C 
ATOM     32  C   UNL     1     129.036 113.503 132.232  1.00  0.00     0.028 C 
ATOM     33  C   UNL     1     127.335 115.286 131.563  1.00  0.00     0.028 C 
ATOM     34  C   UNL     1     127.582 113.835 131.945  1.00  0.00    -0.026 C 
ATOM     35  C   UNL     1     126.731 112.759 131.300  1.00  0.00     0.008 C 
ATOM     36  C   UNL     1     126.501 113.125 132.736  1.00  0.00     0.008 C 
ENDBRANCH   9  29
ENDBRANCH   4   6
ENDBRANCH   1   4
BRANCH   1  37
ATOM     37  C   UNL     1     134.731 112.808 127.888  1.00  0.00     0.188 C 
BRANCH  37  38
ATOM     38  C   UNL     1     133.543 112.781 126.952  1.00  0.00     0.174 C 
BRANCH  38  39
ATOM     39  O   UNL     1     132.495 112.025 127.554  1.00  0.00    -0.395 OA
ATOM     40  H   UNL     1     132.413 112.331 128.475  1.00  0.00     0.210 HD
ENDBRANCH  38  39
ENDBRANCH  37  38
ENDBRANCH   1  37
TORSDOF 8
ENDMDL
MODEL 7
REMARK VINA RESULT:     -11.4      4.245      7.444
REMARK SMILES O=S(=O)(CCO)Nc1ccc(-c2nc3c(N4CCC(F)(F)CC4)cccc3s2)c(N2CCC3(CC2)CC3)c1
REMARK SMILES IDX 2 1 1 2 3 3 7 4 8 6 11 7 10 8 29 9 9 10 38 11 12 12 13 13
REMARK SMILES IDX 28 14 14 15 27 16 15 17 26 18 24 19 25 20 16 21 17 22 23 23
REMARK SMILES IDX 18 24 22 25 19 26 20 27 21 28 30 29 31 30 35 31 32 32 34 33
REMARK SMILES IDX 33 34 36 35 37 36 4 37 5 38 6 39
REMARK H PARENT 7 5 6 40
REMARK Flexibility Score: inf
ROOT
ATOM      1  S   UNL     1     134.373 114.173 128.860  1.00  0.00     0.234 S 
ATOM      2  O   UNL     1     134.521 113.304 127.711  1.00  0.00    -0.207 OA
ATOM      3  O   UNL     1     135.528 114.804 129.460  1.00  0.00    -0.207 OA
ENDROOT
BRANCH   1   4
ATOM      4  N   UNL     1     133.268 115.362 128.371  1.00  0.00    -0.283 N 
ATOM      5  H   UNL     1     133.694 115.903 127.616  1.00  0.00     0.180 HD
BRANCH   4   6
ATOM      6  C   UNL     1     132.673 116.155 129.399  1.00  0.00     0.051 A 
ATOM      7  C   UNL     1     131.456 117.750 131.358  1.00  0.00     0.034 A 
ATOM      8  C   UNL     1     132.536 118.235 130.593  1.00  0.00     0.015 A 
ATOM      9  C   UNL     1     130.953 116.446 131.113  1.00  0.00     0.049 A 
ATOM     10  C   UNL     1     133.141 117.444 129.618  1.00  0.00     0.027 A 
ATOM     11  C   UNL     1     131.585 115.665 130.126  1.00  0.00     0.053 A 
BRANCH   7  12
ATOM     12  C   UNL     1     130.900 118.649 132.379  1.00  0.00     0.126 A 
ATOM     13  N   UNL     1     130.196 118.240 133.412  1.00  0.00    -0.234 NA
ATOM     14  S   UNL     1     131.032 120.351 132.217  1.00  0.00    -0.114 S 
ATOM     15  C   UNL     1     129.772 119.319 134.188  1.00  0.00     0.105 A 
ATOM     16  C   UNL     1     130.150 120.566 133.680  1.00  0.00     0.057 A 
ATOM     17  C   UNL     1     129.026 119.251 135.409  1.00  0.00     0.064 A 
ATOM     18  C   UNL     1     129.822 121.773 134.316  1.00  0.00     0.021 A 
ATOM     19  C   UNL     1     128.699 120.487 136.022  1.00  0.00     0.028 A 
ATOM     20  C   UNL     1     129.087 121.715 135.494  1.00  0.00     0.004 A 
BRANCH  17  21
ATOM     21  N   UNL     1     128.554 118.069 136.058  1.00  0.00    -0.369 N 
ATOM     22  C   UNL     1     127.841 117.118 135.187  1.00  0.00     0.123 C 
ATOM     23  C   UNL     1     129.616 117.429 136.858  1.00  0.00     0.123 C 
ATOM     24  C   UNL     1     127.143 116.088 136.062  1.00  0.00     0.098 C 
ATOM     25  C   UNL     1     128.984 116.394 137.774  1.00  0.00     0.098 C 
ATOM     26  C   UNL     1     128.161 115.420 136.960  1.00  0.00     0.251 C 
ATOM     27  F   UNL     1     128.993 114.650 136.208  1.00  0.00    -0.207 F 
ATOM     28  F   UNL     1     127.522 114.564 137.802  1.00  0.00    -0.207 F 
ENDBRANCH  17  21
ENDBRANCH   7  12
BRANCH   9  29
ATOM     29  N   UNL     1     129.805 115.974 131.783  1.00  0.00    -0.371 N 
ATOM     30  C   UNL     1     129.945 114.791 132.655  1.00  0.00     0.117 C 
ATOM     31  C   UNL     1     128.610 116.004 130.907  1.00  0.00     0.117 C 
ATOM     32  C   UNL     1     129.202 113.571 132.103  1.00  0.00     0.028 C 
ATOM     33  C   UNL     1     127.419 115.327 131.594  1.00  0.00     0.028 C 
ATOM     34  C   UNL     1     127.725 113.871 131.905  1.00  0.00    -0.026 C 
ATOM     35  C   UNL     1     126.871 112.795 131.264  1.00  0.00     0.008 C 
ATOM     36  C   UNL     1     126.708 113.100 132.724  1.00  0.00     0.008 C 
ENDBRANCH   9  29
ENDBRANCH   4   6
ENDBRANCH   1   4
BRANCH   1  37
ATOM     37  C   UNL     1     133.469 113.285 130.112  1.00  0.00     0.188 C 
BRANCH  37  38
ATOM     38  C   UNL     1     134.094 111.941 130.414  1.00  0.00     0.174 C 
BRANCH  38  39
ATOM     39  O   UNL     1     135.512 112.065 130.356  1.00  0.00    -0.395 OA
ATOM     40  H   UNL     1     135.887 111.326 130.867  1.00  0.00     0.210 HD
ENDBRANCH  38  39
ENDBRANCH  37  38
ENDBRANCH   1  37
TORSDOF 8
ENDMDL
MODEL 8
REMARK VINA RESULT:     -11.3      4.737      7.876
REMARK SMILES O=S(=O)(CCO)Nc1ccc(-c2nc3c(N4CCC(F)(F)CC4)cccc3s2)c(N2CCC3(CC2)CC3)c1
REMARK SMILES IDX 2 1 1 2 3 3 7 4 8 6 11 7 10 8 29 9 9 10 38 11 12 12 13 13
REMARK SMILES IDX 28 14 14 15 27 16 15 17 26 18 24 19 25 20 16 21 17 22 23 23
REMARK SMILES IDX 18 24 22 25 19 26 20 27 21 28 30 29 31 30 35 31 32 32 34 33
REMARK SMILES IDX 33 34 36 35 37 36 4 37 5 38 6 39
REMARK H PARENT 7 5 6 40
REMARK Flexibility Score: inf
ROOT
ATOM      1  S   UNL     1     134.676 113.601 128.767  1.00  0.00     0.234 S 
ATOM      2  O   UNL     1     134.987 112.794 127.605  1.00  0.00    -0.207 OA
ATOM      3  O   UNL     1     135.510 114.727 129.126  1.00  0.00    -0.207 OA
ENDROOT
BRANCH   1   4
ATOM      4  N   UNL     1     133.085 114.132 128.519  1.00  0.00    -0.283 N 
ATOM      5  H   UNL     1     132.980 114.380 127.533  1.00  0.00     0.180 HD
BRANCH   4   6
ATOM      6  C   UNL     1     132.579 115.110 129.428  1.00  0.00     0.051 A 
ATOM      7  C   UNL     1     131.548 117.069 131.149  1.00  0.00     0.034 A 
ATOM      8  C   UNL     1     132.724 117.300 130.406  1.00  0.00     0.015 A 
ATOM      9  C   UNL     1     130.855 115.840 131.001  1.00  0.00     0.049 A 
ATOM     10  C   UNL     1     133.237 116.328 129.550  1.00  0.00     0.027 A 
ATOM     11  C   UNL     1     131.397 114.872 130.134  1.00  0.00     0.053 A 
BRANCH   7  12
ATOM     12  C   UNL     1     131.099 118.146 132.043  1.00  0.00     0.126 A 
ATOM     13  N   UNL     1     130.516 117.939 133.204  1.00  0.00    -0.234 NA
ATOM     14  S   UNL     1     131.197 119.788 131.562  1.00  0.00    -0.114 S 
ATOM     15  C   UNL     1     130.169 119.146 133.813  1.00  0.00     0.105 A 
ATOM     16  C   UNL     1     130.478 120.275 133.048  1.00  0.00     0.057 A 
ATOM     17  C   UNL     1     129.561 119.309 135.099  1.00  0.00     0.064 A 
ATOM     18  C   UNL     1     130.211 121.581 133.486  1.00  0.00     0.021 A 
ATOM     19  C   UNL     1     129.292 120.639 135.509  1.00  0.00     0.028 A 
ATOM     20  C   UNL     1     129.609 121.746 134.728  1.00  0.00     0.004 A 
BRANCH  17  21
ATOM     21  N   UNL     1     129.174 118.270 136.000  1.00  0.00    -0.369 N 
ATOM     22  C   UNL     1     130.248 117.764 136.874  1.00  0.00     0.123 C 
ATOM     23  C   UNL     1     127.950 118.626 136.743  1.00  0.00     0.123 C 
ATOM     24  C   UNL     1     129.771 116.480 137.535  1.00  0.00     0.098 C 
ATOM     25  C   UNL     1     127.406 117.378 137.420  1.00  0.00     0.098 C 
ATOM     26  C   UNL     1     128.481 116.747 138.278  1.00  0.00     0.251 C 
ATOM     27  F   UNL     1     128.730 117.552 139.345  1.00  0.00    -0.207 F 
ATOM     28  F   UNL     1     128.011 115.580 138.794  1.00  0.00    -0.207 F 
ENDBRANCH  17  21
ENDBRANCH   7  12
BRANCH   9  29
ATOM     29  N   UNL     1     129.619 115.624 131.645  1.00  0.00    -0.371 N 
ATOM     30  C   UNL     1     129.587 114.704 132.800  1.00  0.00     0.117 C 
ATOM     31  C   UNL     1     128.512 115.488 130.669  1.00  0.00     0.117 C 
ATOM     32  C   UNL     1     128.800 113.425 132.502  1.00  0.00     0.028 C 
ATOM     33  C   UNL     1     127.215 115.080 131.377  1.00  0.00     0.028 C 
ATOM     34  C   UNL     1     127.376 113.742 132.080  1.00  0.00    -0.026 C 
ATOM     35  C   UNL     1     126.498 112.584 131.648  1.00  0.00     0.008 C 
ATOM     36  C   UNL     1     126.232 113.268 132.956  1.00  0.00     0.008 C 
ENDBRANCH   9  29
ENDBRANCH   4   6
ENDBRANCH   1   4
BRANCH   1  37
ATOM     37  C   UNL     1     134.515 112.514 130.169  1.00  0.00     0.188 C 
BRANCH  37  38
ATOM     38  C   UNL     1     135.846 112.256 130.840  1.00  0.00     0.174 C 
BRANCH  38  39
ATOM     39  O   UNL     1     136.706 111.586 129.922  1.00  0.00    -0.395 OA
ATOM     40  H   UNL     1     136.145 111.025 129.358  1.00  0.00     0.210 HD
ENDBRANCH  38  39
ENDBRANCH  37  38
ENDBRANCH   1  37
TORSDOF 8
ENDMDL
MODEL 9
REMARK VINA RESULT:     -11.2      4.091      7.558
REMARK SMILES O=S(=O)(CCO)Nc1ccc(-c2nc3c(N4CCC(F)(F)CC4)cccc3s2)c(N2CCC3(CC2)CC3)c1
REMARK SMILES IDX 2 1 1 2 3 3 7 4 8 6 11 7 10 8 29 9 9 10 38 11 12 12 13 13
REMARK SMILES IDX 28 14 14 15 27 16 15 17 26 18 24 19 25 20 16 21 17 22 23 23
REMARK SMILES IDX 18 24 22 25 19 26 20 27 21 28 30 29 31 30 35 31 32 32 34 33
REMARK SMILES IDX 33 34 36 35 37 36 4 37 5 38 6 39
REMARK H PARENT 7 5 6 40
REMARK Flexibility Score: inf
ROOT
ATOM      1  S   UNL     1     134.174 113.743 129.313  1.00  0.00     0.234 S 
ATOM      2  O   UNL     1     135.472 114.250 129.711  1.00  0.00    -0.207 OA
ATOM      3  O   UNL     1     133.339 113.036 130.259  1.00  0.00    -0.207 OA
ENDROOT
BRANCH   1   4
ATOM      4  N   UNL     1     133.339 115.093 128.719  1.00  0.00    -0.283 N 
ATOM      5  H   UNL     1     133.951 115.587 128.066  1.00  0.00     0.180 HD
BRANCH   4   6
ATOM      6  C   UNL     1     132.703 115.936 129.680  1.00  0.00     0.051 A 
ATOM      7  C   UNL     1     131.411 117.627 131.506  1.00  0.00     0.034 A 
ATOM      8  C   UNL     1     132.532 118.068 130.775  1.00  0.00     0.015 A 
ATOM      9  C   UNL     1     130.905 116.318 131.294  1.00  0.00     0.049 A 
ATOM     10  C   UNL     1     133.175 117.229 129.866  1.00  0.00     0.027 A 
ATOM     11  C   UNL     1     131.576 115.489 130.374  1.00  0.00     0.053 A 
BRANCH   7  12
ATOM     12  C   UNL     1     130.816 118.576 132.458  1.00  0.00     0.126 A 
ATOM     13  N   UNL     1     130.087 118.217 133.493  1.00  0.00    -0.234 NA
ATOM     14  S   UNL     1     130.935 120.267 132.204  1.00  0.00    -0.114 S 
ATOM     15  C   UNL     1     129.629 119.333 134.193  1.00  0.00     0.105 A 
ATOM     16  C   UNL     1     130.008 120.553 133.626  1.00  0.00     0.057 A 
ATOM     17  C   UNL     1     128.848 119.325 135.395  1.00  0.00     0.064 A 
ATOM     18  C   UNL     1     129.649 121.791 134.183  1.00  0.00     0.021 A 
ATOM     19  C   UNL     1     128.490 120.589 135.927  1.00  0.00     0.028 A 
ATOM     20  C   UNL     1     128.881 121.790 135.342  1.00  0.00     0.004 A 
BRANCH  17  21
ATOM     21  N   UNL     1     128.370 118.175 136.096  1.00  0.00    -0.369 N 
ATOM     22  C   UNL     1     127.889 117.075 135.242  1.00  0.00     0.123 C 
ATOM     23  C   UNL     1     129.331 117.728 137.122  1.00  0.00     0.123 C 
ATOM     24  C   UNL     1     127.140 116.078 136.112  1.00  0.00     0.098 C 
ATOM     25  C   UNL     1     128.640 116.736 138.043  1.00  0.00     0.098 C 
ATOM     26  C   UNL     1     128.044 115.608 137.230  1.00  0.00     0.251 C 
ATOM     27  F   UNL     1     129.048 114.849 136.713  1.00  0.00    -0.207 F 
ATOM     28  F   UNL     1     127.344 114.785 138.056  1.00  0.00    -0.207 F 
ENDBRANCH  17  21
ENDBRANCH   7  12
BRANCH   9  29
ATOM     29  N   UNL     1     129.721 115.887 131.927  1.00  0.00    -0.371 N 
ATOM     30  C   UNL     1     129.787 114.685 132.781  1.00  0.00     0.117 C 
ATOM     31  C   UNL     1     128.552 115.984 131.021  1.00  0.00     0.117 C 
ATOM     32  C   UNL     1     129.005 113.508 132.189  1.00  0.00     0.028 C 
ATOM     33  C   UNL     1     127.315 115.349 131.667  1.00  0.00     0.028 C 
ATOM     34  C   UNL     1     127.549 113.877 131.960  1.00  0.00    -0.026 C 
ATOM     35  C   UNL     1     126.665 112.850 131.280  1.00  0.00     0.008 C 
ATOM     36  C   UNL     1     126.478 113.138 132.739  1.00  0.00     0.008 C 
ENDBRANCH   9  29
ENDBRANCH   4   6
ENDBRANCH   1   4
BRANCH   1  37
ATOM     37  C   UNL     1     134.394 112.742 127.856  1.00  0.00     0.188 C 
BRANCH  37  38
ATOM     38  C   UNL     1     133.155 112.724 126.990  1.00  0.00     0.174 C 
BRANCH  38  39
ATOM     39  O   UNL     1     132.003 112.685 127.829  1.00  0.00    -0.395 OA
ATOM     40  H   UNL     1     131.836 113.595 128.131  1.00  0.00     0.210 HD
ENDBRANCH  38  39
ENDBRANCH  37  38
ENDBRANCH   1  37
TORSDOF 8
ENDMDL
