MODEL 1
REMARK VINA RESULT:     -12.5      0.000      0.000
REMARK SMILES O=S(=O)(CCO)Nc1ccc(-c2ccnc(N3CCC(F)(F)CC3)c2)c(N2CCC3(CC2)CC3)c1
REMARK SMILES IDX 2 1 1 2 3 3 7 4 8 6 11 7 10 8 26 9 9 10 35 11 12 12 25 13
REMARK SMILES IDX 13 14 16 15 14 16 15 17 17 18 18 19 24 20 19 21 23 22 20 23
REMARK SMILES IDX 21 24 22 25 27 26 28 27 32 28 29 29 31 30 30 31 33 32 34 33
REMARK SMILES IDX 4 34 5 35 6 36
REMARK H PARENT 7 5 6 37
REMARK Flexibility Score: inf
ROOT
ATOM      1  S   UNL     1     134.668 113.094 128.766  1.00  0.00     0.234 S 
ATOM      2  O   UNL     1     135.556 112.597 127.740  1.00  0.00    -0.207 OA
ATOM      3  O   UNL     1     133.819 112.196 129.522  1.00  0.00    -0.207 OA
ENDROOT
BRANCH   1   4
ATOM      4  N   UNL     1     133.618 114.259 128.124  1.00  0.00    -0.283 N 
ATOM      5  H   UNL     1     134.071 114.701 127.322  1.00  0.00     0.180 HD
BRANCH   4   6
ATOM      6  C   UNL     1     133.015 115.166 129.047  1.00  0.00     0.051 A 
ATOM      7  C   UNL     1     131.748 116.970 130.787  1.00  0.00     0.005 A 
ATOM      8  C   UNL     1     132.861 117.357 130.006  1.00  0.00     0.013 A 
ATOM      9  C   UNL     1     131.243 115.642 130.673  1.00  0.00     0.047 A 
ATOM     10  C   UNL     1     133.484 116.466 129.136  1.00  0.00     0.027 A 
ATOM     11  C   UNL     1     131.907 114.760 129.795  1.00  0.00     0.053 A 
BRANCH   7  12
ATOM     12  C   UNL     1     131.195 117.963 131.733  1.00  0.00    -0.011 A 
ATOM     13  C   UNL     1     130.682 117.572 132.977  1.00  0.00     0.055 A 
ATOM     14  C   UNL     1     131.147 119.318 131.408  1.00  0.00     0.029 A 
ATOM     15  C   UNL     1     130.158 118.519 133.860  1.00  0.00     0.129 A 
ATOM     16  C   UNL     1     130.603 120.196 132.325  1.00  0.00     0.114 A 
ATOM     17  N   UNL     1     130.109 119.826 133.527  1.00  0.00    -0.239 NA
BRANCH  15  18
ATOM     18  N   UNL     1     129.651 118.087 135.111  1.00  0.00    -0.356 N 
ATOM     19  C   UNL     1     128.765 119.101 135.707  1.00  0.00     0.124 C 
ATOM     20  C   UNL     1     129.033 116.752 135.022  1.00  0.00     0.124 C 
ATOM     21  C   UNL     1     128.412 118.678 137.124  1.00  0.00     0.098 C 
ATOM     22  C   UNL     1     128.695 116.267 136.421  1.00  0.00     0.098 C 
ATOM     23  C   UNL     1     127.819 117.287 137.113  1.00  0.00     0.251 C 
ATOM     24  F   UNL     1     127.590 116.890 138.392  1.00  0.00    -0.207 F 
ATOM     25  F   UNL     1     126.601 117.323 136.509  1.00  0.00    -0.207 F 
ENDBRANCH  15  18
ENDBRANCH   7  12
BRANCH   9  26
ATOM     26  N   UNL     1     130.111 115.219 131.391  1.00  0.00    -0.371 N 
ATOM     27  C   UNL     1     128.804 115.555 130.781  1.00  0.00     0.117 C 
ATOM     28  C   UNL     1     130.172 113.986 132.188  1.00  0.00     0.117 C 
ATOM     29  C   UNL     1     127.841 114.361 130.793  1.00  0.00     0.028 C 
ATOM     30  C   UNL     1     128.913 113.866 133.055  1.00  0.00     0.028 C 
ATOM     31  C   UNL     1     127.661 113.806 132.195  1.00  0.00    -0.026 C 
ATOM     32  C   UNL     1     126.325 113.992 132.886  1.00  0.00     0.008 C 
ATOM     33  C   UNL     1     126.712 112.638 132.372  1.00  0.00     0.008 C 
ENDBRANCH   9  26
ENDBRANCH   4   6
ENDBRANCH   1   4
BRANCH   1  34
ATOM     34  C   UNL     1     135.601 114.068 129.927  1.00  0.00     0.188 C 
BRANCH  34  35
ATOM     35  C   UNL     1     136.382 113.161 130.854  1.00  0.00     0.174 C 
BRANCH  35  36
ATOM     36  O   UNL     1     136.703 111.957 130.162  1.00  0.00    -0.395 OA
ATOM     37  H   UNL     1     137.255 111.421 130.761  1.00  0.00     0.210 HD
ENDBRANCH  35  36
ENDBRANCH  34  35
ENDBRANCH   1  34
TORSDOF 8
ENDMDL
MODEL 2
REMARK VINA RESULT:     -12.3      0.892      1.355
REMARK SMILES O=S(=O)(CCO)Nc1ccc(-c2ccnc(N3CCC(F)(F)CC3)c2)c(N2CCC3(CC2)CC3)c1
REMARK SMILES IDX 2 1 1 2 3 3 7 4 8 6 11 7 10 8 26 9 9 10 35 11 12 12 25 13
REMARK SMILES IDX 13 14 16 15 14 16 15 17 17 18 18 19 24 20 19 21 23 22 20 23
REMARK SMILES IDX 21 24 22 25 27 26 28 27 32 28 29 29 31 30 30 31 33 32 34 33
REMARK SMILES IDX 4 34 5 35 6 36
REMARK H PARENT 7 5 6 37
REMARK Flexibility Score: inf
ROOT
ATOM      1  S   UNL     1     134.495 113.103 129.320  1.00  0.00     0.234 S 
ATOM      2  O   UNL     1     133.510 112.048 129.386  1.00  0.00    -0.207 OA
ATOM      3  O   UNL     1     135.149 113.594 130.516  1.00  0.00    -0.207 OA
ENDROOT
BRANCH   1   4
ATOM      4  N   UNL     1     133.839 114.479 128.579  1.00  0.00    -0.283 N 
ATOM      5  H   UNL     1     134.558 114.910 127.994  1.00  0.00     0.180 HD
BRANCH   4   6
ATOM      6  C   UNL     1     133.124 115.387 129.416  1.00  0.00     0.051 A 
ATOM      7  C   UNL     1     131.642 117.186 130.983  1.00  0.00     0.005 A 
ATOM      8  C   UNL     1     132.793 117.600 130.275  1.00  0.00     0.013 A 
ATOM      9  C   UNL     1     131.210 115.831 130.882  1.00  0.00     0.047 A 
ATOM     10  C   UNL     1     133.523 116.711 129.490  1.00  0.00     0.027 A 
ATOM     11  C   UNL     1     131.981 114.953 130.093  1.00  0.00     0.053 A 
BRANCH   7  12
ATOM     12  C   UNL     1     130.971 118.183 131.843  1.00  0.00    -0.011 A 
ATOM     13  C   UNL     1     130.258 117.793 132.986  1.00  0.00     0.055 A 
ATOM     14  C   UNL     1     131.008 119.543 131.536  1.00  0.00     0.029 A 
ATOM     15  C   UNL     1     129.624 118.744 133.788  1.00  0.00     0.129 A 
ATOM     16  C   UNL     1     130.347 120.425 132.368  1.00  0.00     0.114 A 
ATOM     17  N   UNL     1     129.660 120.055 133.471  1.00  0.00    -0.239 NA
BRANCH  15  18
ATOM     18  N   UNL     1     128.915 118.312 134.937  1.00  0.00    -0.356 N 
ATOM     19  C   UNL     1     129.350 116.970 135.360  1.00  0.00     0.124 C 
ATOM     20  C   UNL     1     128.964 119.309 136.021  1.00  0.00     0.124 C 
ATOM     21  C   UNL     1     128.429 116.474 136.462  1.00  0.00     0.098 C 
ATOM     22  C   UNL     1     128.026 118.877 137.135  1.00  0.00     0.098 C 
ATOM     23  C   UNL     1     128.388 117.481 137.589  1.00  0.00     0.251 C 
ATOM     24  F   UNL     1     127.495 117.067 138.526  1.00  0.00    -0.207 F 
ATOM     25  F   UNL     1     129.597 117.506 138.212  1.00  0.00    -0.207 F 
ENDBRANCH  15  18
ENDBRANCH   7  12
BRANCH   9  26
ATOM     26  N   UNL     1     130.047 115.378 131.527  1.00  0.00    -0.371 N 
ATOM     27  C   UNL     1     128.784 115.569 130.777  1.00  0.00     0.117 C 
ATOM     28  C   UNL     1     130.115 114.216 132.423  1.00  0.00     0.117 C 
ATOM     29  C   UNL     1     127.908 114.310 130.799  1.00  0.00     0.028 C 
ATOM     30  C   UNL     1     128.790 114.066 133.181  1.00  0.00     0.028 C 
ATOM     31  C   UNL     1     127.634 113.848 132.219  1.00  0.00    -0.026 C 
ATOM     32  C   UNL     1     126.228 113.983 132.771  1.00  0.00     0.008 C 
ATOM     33  C   UNL     1     126.754 112.628 132.404  1.00  0.00     0.008 C 
ENDBRANCH   9  26
ENDBRANCH   4   6
ENDBRANCH   1   4
BRANCH   1  34
ATOM     34  C   UNL     1     135.761 112.650 128.154  1.00  0.00     0.188 C 
BRANCH  34  35
ATOM     35  C   UNL     1     137.113 112.644 128.835  1.00  0.00     0.174 C 
BRANCH  35  36
ATOM     36  O   UNL     1     137.185 111.524 129.713  1.00  0.00    -0.395 OA
ATOM     37  H   UNL     1     138.088 111.505 130.079  1.00  0.00     0.210 HD
ENDBRANCH  35  36
ENDBRANCH  34  35
ENDBRANCH   1  34
TORSDOF 8
ENDMDL
MODEL 3
REMARK VINA RESULT:     -11.8      1.303      1.861
REMARK SMILES O=S(=O)(CCO)Nc1ccc(-c2ccnc(N3CCC(F)(F)CC3)c2)c(N2CCC3(CC2)CC3)c1
REMARK SMILES IDX 2 1 1 2 3 3 7 4 8 6 11 7 10 8 26 9 9 10 35 11 12 12 25 13
REMARK SMILES IDX 13 14 16 15 14 16 15 17 17 18 18 19 24 20 19 21 23 22 20 23
REMARK SMILES IDX 21 24 22 25 27 26 28 27 32 28 29 29 31 30 30 31 33 32 34 33
REMARK SMILES IDX 4 34 5 35 6 36
REMARK H PARENT 7 5 6 37
REMARK Flexibility Score: inf
ROOT
ATOM      1  S   UNL     1     134.877 113.894 129.291  1.00  0.00     0.234 S 
ATOM      2  O   UNL     1     134.330 113.187 130.426  1.00  0.00    -0.207 OA
ATOM      3  O   UNL     1     136.078 114.695 129.414  1.00  0.00    -0.207 OA
ENDROOT
BRANCH   1   4
ATOM      4  N   UNL     1     133.717 114.938 128.630  1.00  0.00    -0.283 N 
ATOM      5  H   UNL     1     134.136 115.439 127.844  1.00  0.00     0.180 HD
BRANCH   4   6
ATOM      6  C   UNL     1     132.989 115.759 129.543  1.00  0.00     0.051 A 
ATOM      7  C   UNL     1     131.481 117.390 131.262  1.00  0.00     0.005 A 
ATOM      8  C   UNL     1     132.605 117.891 130.568  1.00  0.00     0.013 A 
ATOM      9  C   UNL     1     131.090 116.033 131.068  1.00  0.00     0.047 A 
ATOM     10  C   UNL     1     133.348 117.087 129.708  1.00  0.00     0.027 A 
ATOM     11  C   UNL     1     131.873 115.240 130.205  1.00  0.00     0.053 A 
BRANCH   7  12
ATOM     12  C   UNL     1     130.795 118.299 132.204  1.00  0.00    -0.011 A 
ATOM     13  C   UNL     1     130.289 117.831 133.425  1.00  0.00     0.055 A 
ATOM     14  C   UNL     1     130.611 119.647 131.900  1.00  0.00     0.029 A 
ATOM     15  C   UNL     1     129.639 118.700 134.305  1.00  0.00     0.129 A 
ATOM     16  C   UNL     1     129.947 120.444 132.813  1.00  0.00     0.114 A 
ATOM     17  N   UNL     1     129.459 120.000 133.991  1.00  0.00    -0.239 NA
BRANCH  15  18
ATOM     18  N   UNL     1     129.143 118.191 135.531  1.00  0.00    -0.356 N 
ATOM     19  C   UNL     1     128.929 116.736 135.459  1.00  0.00     0.124 C 
ATOM     20  C   UNL     1     129.978 118.601 136.675  1.00  0.00     0.124 C 
ATOM     21  C   UNL     1     128.214 116.277 136.719  1.00  0.00     0.098 C 
ATOM     22  C   UNL     1     129.286 118.196 137.965  1.00  0.00     0.098 C 
ATOM     23  C   UNL     1     128.993 116.714 137.940  1.00  0.00     0.251 C 
ATOM     24  F   UNL     1     128.299 116.373 139.057  1.00  0.00    -0.207 F 
ATOM     25  F   UNL     1     130.161 116.019 137.999  1.00  0.00    -0.207 F 
ENDBRANCH  15  18
ENDBRANCH   7  12
BRANCH   9  26
ATOM     26  N   UNL     1     129.953 115.496 131.697  1.00  0.00    -0.371 N 
ATOM     27  C   UNL     1     128.662 115.765 131.022  1.00  0.00     0.117 C 
ATOM     28  C   UNL     1     130.059 114.237 132.445  1.00  0.00     0.117 C 
ATOM     29  C   UNL     1     127.793 114.504 130.926  1.00  0.00     0.028 C 
ATOM     30  C   UNL     1     128.765 113.986 133.228  1.00  0.00     0.028 C 
ATOM     31  C   UNL     1     127.574 113.875 132.290  1.00  0.00    -0.026 C 
ATOM     32  C   UNL     1     126.189 113.931 132.904  1.00  0.00     0.008 C 
ATOM     33  C   UNL     1     126.707 112.633 132.360  1.00  0.00     0.008 C 
ENDBRANCH   9  26
ENDBRANCH   4   6
ENDBRANCH   1   4
BRANCH   1  34
ATOM     34  C   UNL     1     135.120 112.751 127.949  1.00  0.00     0.188 C 
BRANCH  34  35
ATOM     35  C   UNL     1     133.840 112.608 127.153  1.00  0.00     0.174 C 
BRANCH  35  36
ATOM     36  O   UNL     1     132.822 112.084 128.002  1.00  0.00    -0.395 OA
ATOM     37  H   UNL     1     133.244 111.420 128.578  1.00  0.00     0.210 HD
ENDBRANCH  35  36
ENDBRANCH  34  35
ENDBRANCH   1  34
TORSDOF 8
ENDMDL
MODEL 4
REMARK VINA RESULT:     -11.8      0.775      1.305
REMARK SMILES O=S(=O)(CCO)Nc1ccc(-c2ccnc(N3CCC(F)(F)CC3)c2)c(N2CCC3(CC2)CC3)c1
REMARK SMILES IDX 2 1 1 2 3 3 7 4 8 6 11 7 10 8 26 9 9 10 35 11 12 12 25 13
REMARK SMILES IDX 13 14 16 15 14 16 15 17 17 18 18 19 24 20 19 21 23 22 20 23
REMARK SMILES IDX 21 24 22 25 27 26 28 27 32 28 29 29 31 30 30 31 33 32 34 33
REMARK SMILES IDX 4 34 5 35 6 36
REMARK H PARENT 7 5 6 37
REMARK Flexibility Score: inf
ROOT
ATOM      1  S   UNL     1     135.251 113.446 128.726  1.00  0.00     0.234 S 
ATOM      2  O   UNL     1     135.998 114.602 129.167  1.00  0.00    -0.207 OA
ATOM      3  O   UNL     1     135.703 112.643 127.608  1.00  0.00    -0.207 OA
ENDROOT
BRANCH   1   4
ATOM      4  N   UNL     1     133.659 113.883 128.341  1.00  0.00    -0.283 N 
ATOM      5  H   UNL     1     133.602 114.059 127.336  1.00  0.00     0.180 HD
BRANCH   4   6
ATOM      6  C   UNL     1     133.045 114.877 129.160  1.00  0.00     0.051 A 
ATOM      7  C   UNL     1     131.759 116.850 130.691  1.00  0.00     0.005 A 
ATOM      8  C   UNL     1     132.907 117.146 129.922  1.00  0.00     0.013 A 
ATOM      9  C   UNL     1     131.228 115.527 130.672  1.00  0.00     0.047 A 
ATOM     10  C   UNL     1     133.540 116.171 129.155  1.00  0.00     0.027 A 
ATOM     11  C   UNL     1     131.903 114.560 129.899  1.00  0.00     0.053 A 
BRANCH   7  12
ATOM     12  C   UNL     1     131.196 117.931 131.527  1.00  0.00    -0.011 A 
ATOM     13  C   UNL     1     130.422 117.644 132.661  1.00  0.00     0.055 A 
ATOM     14  C   UNL     1     131.399 119.272 131.204  1.00  0.00     0.029 A 
ATOM     15  C   UNL     1     129.892 118.675 133.440  1.00  0.00     0.129 A 
ATOM     16  C   UNL     1     130.832 120.238 132.012  1.00  0.00     0.114 A 
ATOM     17  N   UNL     1     130.088 119.968 133.107  1.00  0.00    -0.239 NA
BRANCH  15  18
ATOM     18  N   UNL     1     129.118 118.346 134.580  1.00  0.00    -0.356 N 
ATOM     19  C   UNL     1     129.483 117.021 135.110  1.00  0.00     0.124 C 
ATOM     20  C   UNL     1     129.156 119.412 135.597  1.00  0.00     0.124 C 
ATOM     21  C   UNL     1     128.496 116.634 136.198  1.00  0.00     0.098 C 
ATOM     22  C   UNL     1     128.154 119.088 136.692  1.00  0.00     0.098 C 
ATOM     23  C   UNL     1     128.443 117.715 137.254  1.00  0.00     0.251 C 
ATOM     24  F   UNL     1     127.495 117.396 138.173  1.00  0.00    -0.207 F 
ATOM     25  F   UNL     1     129.624 117.740 137.929  1.00  0.00    -0.207 F 
ENDBRANCH  15  18
ENDBRANCH   7  12
BRANCH   9  26
ATOM     26  N   UNL     1     130.063 115.190 131.381  1.00  0.00    -0.371 N 
ATOM     27  C   UNL     1     128.790 115.389 130.651  1.00  0.00     0.117 C 
ATOM     28  C   UNL     1     130.097 114.100 132.366  1.00  0.00     0.117 C 
ATOM     29  C   UNL     1     127.850 114.185 130.797  1.00  0.00     0.028 C 
ATOM     30  C   UNL     1     128.790 114.081 133.167  1.00  0.00     0.028 C 
ATOM     31  C   UNL     1     127.595 113.852 132.256  1.00  0.00    -0.026 C 
ATOM     32  C   UNL     1     126.216 114.106 132.830  1.00  0.00     0.008 C 
ATOM     33  C   UNL     1     126.659 112.699 132.561  1.00  0.00     0.008 C 
ENDBRANCH   9  26
ENDBRANCH   4   6
ENDBRANCH   1   4
BRANCH   1  34
ATOM     34  C   UNL     1     134.988 112.356 130.108  1.00  0.00     0.188 C 
BRANCH  34  35
ATOM     35  C   UNL     1     135.942 112.705 131.231  1.00  0.00     0.174 C 
BRANCH  35  36
ATOM     36  O   UNL     1     137.278 112.475 130.793  1.00  0.00    -0.395 OA
ATOM     37  H   UNL     1     137.691 111.872 131.438  1.00  0.00     0.210 HD
ENDBRANCH  35  36
ENDBRANCH  34  35
ENDBRANCH   1  34
TORSDOF 8
ENDMDL
MODEL 5
REMARK VINA RESULT:     -11.7      1.137      1.571
REMARK SMILES O=S(=O)(CCO)Nc1ccc(-c2ccnc(N3CCC(F)(F)CC3)c2)c(N2CCC3(CC2)CC3)c1
REMARK SMILES IDX 2 1 1 2 3 3 7 4 8 6 11 7 10 8 26 9 9 10 35 11 12 12 25 13
REMARK SMILES IDX 13 14 16 15 14 16 15 17 17 18 18 19 24 20 19 21 23 22 20 23
REMARK SMILES IDX 21 24 22 25 27 26 28 27 32 28 29 29 31 30 30 31 33 32 34 33
REMARK SMILES IDX 4 34 5 35 6 36
REMARK H PARENT 7 5 6 37
REMARK Flexibility Score: inf
ROOT
ATOM      1  S   UNL     1     134.527 114.049 128.912  1.00  0.00     0.234 S 
ATOM      2  O   UNL     1     135.645 114.599 129.644  1.00  0.00    -0.207 OA
ATOM      3  O   UNL     1     134.732 113.210 127.749  1.00  0.00    -0.207 OA
ENDROOT
BRANCH   1   4
ATOM      4  N   UNL     1     133.499 115.290 128.385  1.00  0.00    -0.283 N 
ATOM      5  H   UNL     1     134.004 115.870 127.713  1.00  0.00     0.180 HD
BRANCH   4   6
ATOM      6  C   UNL     1     132.791 116.015 129.390  1.00  0.00     0.051 A 
ATOM      7  C   UNL     1     131.318 117.463 131.293  1.00  0.00     0.005 A 
ATOM      8  C   UNL     1     132.407 118.045 130.605  1.00  0.00     0.013 A 
ATOM      9  C   UNL     1     130.944 116.120 130.998  1.00  0.00     0.047 A 
ATOM     10  C   UNL     1     133.132 117.331 129.654  1.00  0.00     0.027 A 
ATOM     11  C   UNL     1     131.709 115.419 130.043  1.00  0.00     0.053 A 
BRANCH   7  12
ATOM     12  C   UNL     1     130.651 118.275 132.332  1.00  0.00    -0.011 A 
ATOM     13  C   UNL     1     130.042 117.673 133.443  1.00  0.00     0.055 A 
ATOM     14  C   UNL     1     130.587 119.664 132.232  1.00  0.00     0.029 A 
ATOM     15  C   UNL     1     129.411 118.452 134.416  1.00  0.00     0.129 A 
ATOM     16  C   UNL     1     129.935 120.368 133.225  1.00  0.00     0.114 A 
ATOM     17  N   UNL     1     129.349 119.794 134.299  1.00  0.00    -0.239 NA
BRANCH  15  18
ATOM     18  N   UNL     1     128.810 117.808 135.526  1.00  0.00    -0.356 N 
ATOM     19  C   UNL     1     129.120 116.369 135.542  1.00  0.00     0.124 C 
ATOM     20  C   UNL     1     129.129 118.487 136.795  1.00  0.00     0.124 C 
ATOM     21  C   UNL     1     128.295 115.696 136.627  1.00  0.00     0.098 C 
ATOM     22  C   UNL     1     128.298 117.874 137.909  1.00  0.00     0.098 C 
ATOM     23  C   UNL     1     128.533 116.381 137.954  1.00  0.00     0.251 C 
ATOM     24  F   UNL     1     127.725 115.826 138.894  1.00  0.00    -0.207 F 
ATOM     25  F   UNL     1     129.807 116.135 138.363  1.00  0.00    -0.207 F 
ENDBRANCH  15  18
ENDBRANCH   7  12
BRANCH   9  26
ATOM     26  N   UNL     1     129.840 115.508 131.618  1.00  0.00    -0.371 N 
ATOM     27  C   UNL     1     128.526 115.773 130.989  1.00  0.00     0.117 C 
ATOM     28  C   UNL     1     130.005 114.210 132.286  1.00  0.00     0.117 C 
ATOM     29  C   UNL     1     127.695 114.492 130.836  1.00  0.00     0.028 C 
ATOM     30  C   UNL     1     128.739 113.870 133.080  1.00  0.00     0.028 C 
ATOM     31  C   UNL     1     127.530 113.775 132.163  1.00  0.00    -0.026 C 
ATOM     32  C   UNL     1     126.159 113.748 132.811  1.00  0.00     0.008 C 
ATOM     33  C   UNL     1     126.705 112.503 132.177  1.00  0.00     0.008 C 
ENDBRANCH   9  26
ENDBRANCH   4   6
ENDBRANCH   1   4
BRANCH   1  34
ATOM     34  C   UNL     1     133.465 113.171 130.037  1.00  0.00     0.188 C 
BRANCH  34  35
ATOM     35  C   UNL     1     134.203 111.990 130.631  1.00  0.00     0.174 C 
BRANCH  35  36
ATOM     36  O   UNL     1     135.511 111.932 130.069  1.00  0.00    -0.395 OA
ATOM     37  H   UNL     1     135.428 111.508 129.195  1.00  0.00     0.210 HD
ENDBRANCH  35  36
ENDBRANCH  34  35
ENDBRANCH   1  34
TORSDOF 8
ENDMDL
MODEL 6
REMARK VINA RESULT:     -11.4      1.098      1.413
REMARK SMILES O=S(=O)(CCO)Nc1ccc(-c2ccnc(N3CCC(F)(F)CC3)c2)c(N2CCC3(CC2)CC3)c1
REMARK SMILES IDX 2 1 1 2 3 3 7 4 8 6 11 7 10 8 26 9 9 10 35 11 12 12 25 13
REMARK SMILES IDX 13 14 16 15 14 16 15 17 17 18 18 19 24 20 19 21 23 22 20 23
REMARK SMILES IDX 21 24 22 25 27 26 28 27 32 28 29 29 31 30 30 31 33 32 34 33
REMARK SMILES IDX 4 34 5 35 6 36
REMARK H PARENT 7 5 6 37
REMARK Flexibility Score: inf
ROOT
ATOM      1  S   UNL     1     133.682 113.436 128.626  1.00  0.00     0.234 S 
ATOM      2  O   UNL     1     134.520 112.832 127.615  1.00  0.00    -0.207 OA
ATOM      3  O   UNL     1     132.346 112.941 128.885  1.00  0.00    -0.207 OA
ENDROOT
BRANCH   1   4
ATOM      4  N   UNL     1     133.488 115.091 128.321  1.00  0.00    -0.283 N 
ATOM      5  H   UNL     1     134.385 115.475 128.015  1.00  0.00     0.180 HD
BRANCH   4   6
ATOM      6  C   UNL     1     132.816 115.860 129.318  1.00  0.00     0.051 A 
ATOM      7  C   UNL     1     131.415 117.393 131.208  1.00  0.00     0.005 A 
ATOM      8  C   UNL     1     132.506 117.929 130.488  1.00  0.00     0.013 A 
ATOM      9  C   UNL     1     131.001 116.053 130.954  1.00  0.00     0.047 A 
ATOM     10  C   UNL     1     133.196 117.173 129.544  1.00  0.00     0.027 A 
ATOM     11  C   UNL     1     131.731 115.309 130.005  1.00  0.00     0.053 A 
BRANCH   7  12
ATOM     12  C   UNL     1     130.787 118.248 132.238  1.00  0.00    -0.011 A 
ATOM     13  C   UNL     1     130.277 117.700 133.424  1.00  0.00     0.055 A 
ATOM     14  C   UNL     1     130.662 119.624 132.054  1.00  0.00     0.029 A 
ATOM     15  C   UNL     1     129.682 118.518 134.387  1.00  0.00     0.129 A 
ATOM     16  C   UNL     1     130.050 120.369 133.044  1.00  0.00     0.114 A 
ATOM     17  N   UNL     1     129.560 119.847 134.189  1.00  0.00    -0.239 NA
BRANCH  15  18
ATOM     18  N   UNL     1     129.182 117.928 135.574  1.00  0.00    -0.356 N 
ATOM     19  C   UNL     1     130.237 117.195 136.294  1.00  0.00     0.124 C 
ATOM     20  C   UNL     1     128.473 118.908 136.418  1.00  0.00     0.124 C 
ATOM     21  C   UNL     1     129.610 116.422 137.442  1.00  0.00     0.098 C 
ATOM     22  C   UNL     1     127.795 118.176 137.564  1.00  0.00     0.098 C 
ATOM     23  C   UNL     1     128.818 117.362 138.323  1.00  0.00     0.251 C 
ATOM     24  F   UNL     1     128.192 116.644 139.292  1.00  0.00    -0.207 F 
ATOM     25  F   UNL     1     129.674 118.198 138.969  1.00  0.00    -0.207 F 
ENDBRANCH  15  18
ENDBRANCH   7  12
BRANCH   9  26
ATOM     26  N   UNL     1     129.893 115.486 131.608  1.00  0.00    -0.371 N 
ATOM     27  C   UNL     1     128.576 115.764 130.992  1.00  0.00     0.117 C 
ATOM     28  C   UNL     1     130.038 114.204 132.311  1.00  0.00     0.117 C 
ATOM     29  C   UNL     1     127.713 114.500 130.888  1.00  0.00     0.028 C 
ATOM     30  C   UNL     1     128.776 113.917 133.133  1.00  0.00     0.028 C 
ATOM     31  C   UNL     1     127.551 113.825 132.238  1.00  0.00    -0.026 C 
ATOM     32  C   UNL     1     126.191 113.850 132.906  1.00  0.00     0.008 C 
ATOM     33  C   UNL     1     126.697 112.574 132.301  1.00  0.00     0.008 C 
ENDBRANCH   9  26
ENDBRANCH   4   6
ENDBRANCH   1   4
BRANCH   1  34
ATOM     34  C   UNL     1     134.561 113.468 130.173  1.00  0.00     0.188 C 
BRANCH  34  35
ATOM     35  C   UNL     1     136.053 113.418 129.922  1.00  0.00     0.174 C 
BRANCH  35  36
ATOM     36  O   UNL     1     136.458 114.630 129.292  1.00  0.00    -0.395 OA
ATOM     37  H   UNL     1     135.759 115.288 129.462  1.00  0.00     0.210 HD
ENDBRANCH  35  36
ENDBRANCH  34  35
ENDBRANCH   1  34
TORSDOF 8
ENDMDL
MODEL 7
REMARK VINA RESULT:     -11.3      4.952      7.762
REMARK SMILES O=S(=O)(CCO)Nc1ccc(-c2ccnc(N3CCC(F)(F)CC3)c2)c(N2CCC3(CC2)CC3)c1
REMARK SMILES IDX 2 1 1 2 3 3 7 4 8 6 11 7 10 8 26 9 9 10 35 11 12 12 25 13
REMARK SMILES IDX 13 14 16 15 14 16 15 17 17 18 18 19 24 20 19 21 23 22 20 23
REMARK SMILES IDX 21 24 22 25 27 26 28 27 32 28 29 29 31 30 30 31 33 32 34 33
REMARK SMILES IDX 4 34 5 35 6 36
REMARK H PARENT 7 5 6 37
REMARK Flexibility Score: inf
ROOT
ATOM      1  S   UNL     1     129.555 118.258 138.283  1.00  0.00     0.234 S 
ATOM      2  O   UNL     1     130.491 119.136 138.947  1.00  0.00    -0.207 OA
ATOM      3  O   UNL     1     129.978 116.984 137.738  1.00  0.00    -0.207 OA
ENDROOT
BRANCH   1   4
ATOM      4  N   UNL     1     128.803 119.062 136.994  1.00  0.00    -0.283 N 
ATOM      5  H   UNL     1     127.799 118.872 137.031  1.00  0.00     0.180 HD
BRANCH   4   6
ATOM      6  C   UNL     1     129.394 118.912 135.704  1.00  0.00     0.051 A 
ATOM      7  C   UNL     1     130.618 118.534 133.205  1.00  0.00     0.005 A 
ATOM      8  C   UNL     1     131.058 119.537 134.097  1.00  0.00     0.013 A 
ATOM      9  C   UNL     1     129.544 117.679 133.591  1.00  0.00     0.047 A 
ATOM     10  C   UNL     1     130.459 119.720 135.340  1.00  0.00     0.027 A 
ATOM     11  C   UNL     1     128.948 117.901 134.849  1.00  0.00     0.053 A 
BRANCH   7  12
ATOM     12  C   UNL     1     131.270 118.459 131.880  1.00  0.00    -0.011 A 
ATOM     13  C   UNL     1     131.621 117.225 131.313  1.00  0.00     0.055 A 
ATOM     14  C   UNL     1     131.576 119.613 131.161  1.00  0.00     0.029 A 
ATOM     15  C   UNL     1     132.240 117.168 130.062  1.00  0.00     0.129 A 
ATOM     16  C   UNL     1     132.201 119.481 129.936  1.00  0.00     0.114 A 
ATOM     17  N   UNL     1     132.539 118.295 129.384  1.00  0.00    -0.239 NA
BRANCH  15  18
ATOM     18  N   UNL     1     132.577 115.903 129.520  1.00  0.00    -0.356 N 
ATOM     19  C   UNL     1     134.026 115.653 129.608  1.00  0.00     0.124 C 
ATOM     20  C   UNL     1     131.763 114.821 130.100  1.00  0.00     0.124 C 
ATOM     21  C   UNL     1     134.358 114.385 128.839  1.00  0.00     0.098 C 
ATOM     22  C   UNL     1     132.031 113.535 129.338  1.00  0.00     0.098 C 
ATOM     23  C   UNL     1     133.513 113.239 129.349  1.00  0.00     0.251 C 
ATOM     24  F   UNL     1     133.757 112.135 128.595  1.00  0.00    -0.207 F 
ATOM     25  F   UNL     1     133.904 112.922 130.612  1.00  0.00    -0.207 F 
ENDBRANCH  15  18
ENDBRANCH   7  12
BRANCH   9  26
ATOM     26  N   UNL     1     129.098 116.635 132.762  1.00  0.00    -0.371 N 
ATOM     27  C   UNL     1     129.653 115.296 133.066  1.00  0.00     0.117 C 
ATOM     28  C   UNL     1     127.741 116.678 132.202  1.00  0.00     0.117 C 
ATOM     29  C   UNL     1     128.565 114.214 133.079  1.00  0.00     0.028 C 
ATOM     30  C   UNL     1     127.575 115.569 131.156  1.00  0.00     0.028 C 
ATOM     31  C   UNL     1     127.782 114.197 131.778  1.00  0.00    -0.026 C 
ATOM     32  C   UNL     1     127.955 113.020 130.839  1.00  0.00     0.008 C 
ATOM     33  C   UNL     1     126.689 113.159 131.629  1.00  0.00     0.008 C 
ENDBRANCH   9  26
ENDBRANCH   4   6
ENDBRANCH   1   4
BRANCH   1  34
ATOM     34  C   UNL     1     128.171 117.956 139.360  1.00  0.00     0.188 C 
BRANCH  34  35
ATOM     35  C   UNL     1     127.516 116.638 139.005  1.00  0.00     0.174 C 
BRANCH  35  36
ATOM     36  O   UNL     1     126.989 116.724 137.684  1.00  0.00    -0.395 OA
ATOM     37  H   UNL     1     126.049 116.972 137.766  1.00  0.00     0.210 HD
ENDBRANCH  35  36
ENDBRANCH  34  35
ENDBRANCH   1  34
TORSDOF 8
ENDMDL
MODEL 8
REMARK VINA RESULT:     -10.9      1.614      4.019
REMARK SMILES O=S(=O)(CCO)Nc1ccc(-c2ccnc(N3CCC(F)(F)CC3)c2)c(N2CCC3(CC2)CC3)c1
REMARK SMILES IDX 2 1 1 2 3 3 7 4 8 6 11 7 10 8 26 9 9 10 35 11 12 12 25 13
REMARK SMILES IDX 13 14 16 15 14 16 15 17 17 18 18 19 24 20 19 21 23 22 20 23
REMARK SMILES IDX 21 24 22 25 27 26 28 27 32 28 29 29 31 30 30 31 33 32 34 33
REMARK SMILES IDX 4 34 5 35 6 36
REMARK H PARENT 7 5 6 37
REMARK Flexibility Score: inf
ROOT
ATOM      1  S   UNL     1     134.150 113.121 128.335  1.00  0.00     0.234 S 
ATOM      2  O   UNL     1     133.918 113.161 126.909  1.00  0.00    -0.207 OA
ATOM      3  O   UNL     1     133.411 112.215 129.190  1.00  0.00    -0.207 OA
ENDROOT
BRANCH   1   4
ATOM      4  N   UNL     1     133.918 114.656 129.014  1.00  0.00    -0.283 N 
ATOM      5  H   UNL     1     134.768 114.925 129.514  1.00  0.00     0.180 HD
BRANCH   4   6
ATOM      6  C   UNL     1     132.706 114.869 129.736  1.00  0.00     0.051 A 
ATOM      7  C   UNL     1     130.377 115.287 131.250  1.00  0.00     0.005 A 
ATOM      8  C   UNL     1     130.734 114.001 130.786  1.00  0.00     0.013 A 
ATOM      9  C   UNL     1     131.230 116.393 130.964  1.00  0.00     0.047 A 
ATOM     10  C   UNL     1     131.893 113.790 130.044  1.00  0.00     0.027 A 
ATOM     11  C   UNL     1     132.386 116.149 130.195  1.00  0.00     0.053 A 
BRANCH   7  12
ATOM     12  C   UNL     1     129.095 115.424 131.973  1.00  0.00    -0.011 A 
ATOM     13  C   UNL     1     129.046 115.409 133.374  1.00  0.00     0.055 A 
ATOM     14  C   UNL     1     127.890 115.554 131.283  1.00  0.00     0.029 A 
ATOM     15  C   UNL     1     127.827 115.536 134.044  1.00  0.00     0.129 A 
ATOM     16  C   UNL     1     126.722 115.661 132.013  1.00  0.00     0.114 A 
ATOM     17  N   UNL     1     126.669 115.650 133.362  1.00  0.00    -0.239 NA
BRANCH  15  18
ATOM     18  N   UNL     1     127.818 115.519 135.461  1.00  0.00    -0.356 N 
ATOM     19  C   UNL     1     128.892 116.362 136.013  1.00  0.00     0.124 C 
ATOM     20  C   UNL     1     126.487 115.841 136.006  1.00  0.00     0.124 C 
ATOM     21  C   UNL     1     128.964 116.152 137.516  1.00  0.00     0.098 C 
ATOM     22  C   UNL     1     126.496 115.609 137.507  1.00  0.00     0.098 C 
ATOM     23  C   UNL     1     127.611 116.413 138.137  1.00  0.00     0.251 C 
ATOM     24  F   UNL     1     127.669 116.137 139.467  1.00  0.00    -0.207 F 
ATOM     25  F   UNL     1     127.322 117.739 138.043  1.00  0.00    -0.207 F 
ENDBRANCH  15  18
ENDBRANCH   7  12
BRANCH   9  26
ATOM     26  N   UNL     1     130.947 117.685 131.440  1.00  0.00    -0.371 N 
ATOM     27  C   UNL     1     130.339 117.749 132.789  1.00  0.00     0.117 C 
ATOM     28  C   UNL     1     131.802 118.812 131.045  1.00  0.00     0.117 C 
ATOM     29  C   UNL     1     131.008 118.813 133.670  1.00  0.00     0.028 C 
ATOM     30  C   UNL     1     131.161 120.132 131.490  1.00  0.00     0.028 C 
ATOM     31  C   UNL     1     130.996 120.176 133.001  1.00  0.00    -0.026 C 
ATOM     32  C   UNL     1     130.112 121.263 133.579  1.00  0.00     0.008 C 
ATOM     33  C   UNL     1     131.598 121.339 133.764  1.00  0.00     0.008 C 
ENDBRANCH   9  26
ENDBRANCH   4   6
ENDBRANCH   1   4
BRANCH   1  34
ATOM     34  C   UNL     1     135.885 112.864 128.639  1.00  0.00     0.188 C 
BRANCH  34  35
ATOM     35  C   UNL     1     136.185 113.050 130.111  1.00  0.00     0.174 C 
BRANCH  35  36
ATOM     36  O   UNL     1     137.318 112.258 130.456  1.00  0.00    -0.395 OA
ATOM     37  H   UNL     1     137.689 111.911 129.624  1.00  0.00     0.210 HD
ENDBRANCH  35  36
ENDBRANCH  34  35
ENDBRANCH   1  34
TORSDOF 8
ENDMDL
MODEL 9
REMARK VINA RESULT:     -10.9      4.979      7.589
REMARK SMILES O=S(=O)(CCO)Nc1ccc(-c2ccnc(N3CCC(F)(F)CC3)c2)c(N2CCC3(CC2)CC3)c1
REMARK SMILES IDX 2 1 1 2 3 3 7 4 8 6 11 7 10 8 26 9 9 10 35 11 12 12 25 13
REMARK SMILES IDX 13 14 16 15 14 16 15 17 17 18 18 19 24 20 19 21 23 22 20 23
REMARK SMILES IDX 21 24 22 25 27 26 28 27 32 28 29 29 31 30 30 31 33 32 34 33
REMARK SMILES IDX 4 34 5 35 6 36
REMARK H PARENT 7 5 6 37
REMARK Flexibility Score: inf
ROOT
ATOM      1  S   UNL     1     128.146 118.306 137.996  1.00  0.00     0.234 S 
ATOM      2  O   UNL     1     127.095 117.419 137.553  1.00  0.00    -0.207 OA
ATOM      3  O   UNL     1     128.119 118.901 139.317  1.00  0.00    -0.207 OA
ENDROOT
BRANCH   1   4
ATOM      4  N   UNL     1     128.306 119.613 136.928  1.00  0.00    -0.283 N 
ATOM      5  H   UNL     1     127.386 120.036 136.790  1.00  0.00     0.180 HD
BRANCH   4   6
ATOM      6  C   UNL     1     129.046 119.383 135.730  1.00  0.00     0.051 A 
ATOM      7  C   UNL     1     130.559 118.851 133.424  1.00  0.00     0.005 A 
ATOM      8  C   UNL     1     130.892 119.912 134.295  1.00  0.00     0.013 A 
ATOM      9  C   UNL     1     129.445 118.017 133.734  1.00  0.00     0.047 A 
ATOM     10  C   UNL     1     130.149 120.172 135.444  1.00  0.00     0.027 A 
ATOM     11  C   UNL     1     128.703 118.317 134.896  1.00  0.00     0.053 A 
BRANCH   7  12
ATOM     12  C   UNL     1     131.364 118.694 132.194  1.00  0.00    -0.011 A 
ATOM     13  C   UNL     1     131.452 117.459 131.537  1.00  0.00     0.055 A 
ATOM     14  C   UNL     1     132.080 119.765 131.660  1.00  0.00     0.029 A 
ATOM     15  C   UNL     1     132.219 117.323 130.378  1.00  0.00     0.129 A 
ATOM     16  C   UNL     1     132.828 119.553 130.518  1.00  0.00     0.114 A 
ATOM     17  N   UNL     1     132.914 118.366 129.880  1.00  0.00    -0.239 NA
BRANCH  15  18
ATOM     18  N   UNL     1     132.281 116.059 129.739  1.00  0.00    -0.356 N 
ATOM     19  C   UNL     1     133.674 115.663 129.471  1.00  0.00     0.124 C 
ATOM     20  C   UNL     1     131.514 115.035 130.471  1.00  0.00     0.124 C 
ATOM     21  C   UNL     1     133.677 114.409 128.614  1.00  0.00     0.098 C 
ATOM     22  C   UNL     1     131.455 113.768 129.635  1.00  0.00     0.098 C 
ATOM     23  C   UNL     1     132.858 113.327 129.283  1.00  0.00     0.251 C 
ATOM     24  F   UNL     1     132.797 112.244 128.466  1.00  0.00    -0.207 F 
ATOM     25  F   UNL     1     133.499 112.911 130.408  1.00  0.00    -0.207 F 
ENDBRANCH  15  18
ENDBRANCH   7  12
BRANCH   9  26
ATOM     26  N   UNL     1     129.099 116.919 132.928  1.00  0.00    -0.371 N 
ATOM     27  C   UNL     1     129.376 115.586 133.510  1.00  0.00     0.117 C 
ATOM     28  C   UNL     1     127.952 117.018 132.015  1.00  0.00     0.117 C 
ATOM     29  C   UNL     1     128.190 114.627 133.335  1.00  0.00     0.028 C 
ATOM     30  C   UNL     1     127.922 115.799 131.084  1.00  0.00     0.028 C 
ATOM     31  C   UNL     1     127.779 114.511 131.878  1.00  0.00    -0.026 C 
ATOM     32  C   UNL     1     128.037 113.206 131.151  1.00  0.00     0.008 C 
ATOM     33  C   UNL     1     126.637 113.573 131.543  1.00  0.00     0.008 C 
ENDBRANCH   9  26
ENDBRANCH   4   6
ENDBRANCH   1   4
BRANCH   1  34
ATOM     34  C   UNL     1     129.719 117.498 137.795  1.00  0.00     0.188 C 
BRANCH  34  35
ATOM     35  C   UNL     1     129.570 116.011 138.032  1.00  0.00     0.174 C 
BRANCH  35  36
ATOM     36  O   UNL     1     129.121 115.393 136.828  1.00  0.00    -0.395 OA
ATOM     37  H   UNL     1     129.815 114.767 136.551  1.00  0.00     0.210 HD
ENDBRANCH  35  36
ENDBRANCH  34  35
ENDBRANCH   1  34
TORSDOF 8
ENDMDL
