MODEL 1
REMARK VINA RESULT:      -9.6      0.000      0.000
REMARK SMILES O=S(=O)(CCO)Nc1ccc(-c2ncccc2N2CCC(F)(F)CC2)c(N2CCC3(CC2)CC3)c1
REMARK SMILES IDX 2 1 1 2 3 3 7 4 8 6 11 7 10 8 26 9 9 10 35 11 12 12 13 13
REMARK SMILES IDX 17 14 14 15 16 16 15 17 18 18 19 19 25 20 20 21 24 22 21 23
REMARK SMILES IDX 22 24 23 25 27 26 28 27 32 28 29 29 31 30 30 31 33 32 34 33
REMARK SMILES IDX 4 34 5 35 6 36
REMARK H PARENT 7 5 6 37
REMARK Flexibility Score: inf
ROOT
ATOM      1  S   UNL     1     132.506 120.631 131.284  1.00  0.00     0.234 S 
ATOM      2  O   UNL     1     131.366 120.592 130.391  1.00  0.00    -0.207 OA
ATOM      3  O   UNL     1     133.168 121.880 131.591  1.00  0.00    -0.207 OA
ENDROOT
BRANCH   1   4
ATOM      4  N   UNL     1     132.000 119.885 132.706  1.00  0.00    -0.283 N 
ATOM      5  H   UNL     1     131.952 120.533 133.492  1.00  0.00     0.180 HD
BRANCH   4   6
ATOM      6  C   UNL     1     131.016 118.854 132.652  1.00  0.00     0.051 A 
ATOM      7  C   UNL     1     129.140 116.760 132.510  1.00  0.00     0.026 A 
ATOM      8  C   UNL     1     129.819 117.217 131.361  1.00  0.00     0.015 A 
ATOM      9  C   UNL     1     129.375 117.407 133.757  1.00  0.00     0.048 A 
ATOM     10  C   UNL     1     130.752 118.250 131.429  1.00  0.00     0.027 A 
ATOM     11  C   UNL     1     130.322 118.451 133.795  1.00  0.00     0.053 A 
BRANCH   7  12
ATOM     12  C   UNL     1     128.204 115.625 132.358  1.00  0.00     0.096 A 
ATOM     13  N   UNL     1     126.995 115.875 132.953  1.00  0.00    -0.254 NA
ATOM     14  C   UNL     1     128.520 114.403 131.712  1.00  0.00     0.063 A 
ATOM     15  C   UNL     1     126.088 114.882 132.978  1.00  0.00     0.112 A 
ATOM     16  C   UNL     1     127.528 113.408 131.796  1.00  0.00     0.030 A 
ATOM     17  C   UNL     1     126.310 113.638 132.431  1.00  0.00     0.022 A 
BRANCH  14  18
ATOM     18  N   UNL     1     129.686 114.139 130.996  1.00  0.00    -0.369 N 
ATOM     19  C   UNL     1     129.655 114.114 129.533  1.00  0.00     0.123 C 
ATOM     20  C   UNL     1     130.956 113.918 131.687  1.00  0.00     0.123 C 
ATOM     21  C   UNL     1     130.765 113.218 129.014  1.00  0.00     0.098 C 
ATOM     22  C   UNL     1     132.089 114.451 130.830  1.00  0.00     0.098 C 
ATOM     23  C   UNL     1     132.109 113.722 129.500  1.00  0.00     0.251 C 
ATOM     24  F   UNL     1     132.961 112.663 129.585  1.00  0.00    -0.207 F 
ATOM     25  F   UNL     1     132.646 114.551 128.563  1.00  0.00    -0.207 F 
ENDBRANCH  14  18
ENDBRANCH   7  12
BRANCH   9  26
ATOM     26  N   UNL     1     128.666 117.022 134.916  1.00  0.00    -0.371 N 
ATOM     27  C   UNL     1     129.135 115.825 135.642  1.00  0.00     0.117 C 
ATOM     28  C   UNL     1     128.406 118.170 135.816  1.00  0.00     0.117 C 
ATOM     29  C   UNL     1     128.062 115.381 136.645  1.00  0.00     0.028 C 
ATOM     30  C   UNL     1     127.317 117.791 136.828  1.00  0.00     0.028 C 
ATOM     31  C   UNL     1     127.688 116.521 137.572  1.00  0.00    -0.026 C 
ATOM     32  C   UNL     1     126.946 116.194 138.849  1.00  0.00     0.008 C 
ATOM     33  C   UNL     1     128.384 116.634 138.912  1.00  0.00     0.008 C 
ENDBRANCH   9  26
ENDBRANCH   4   6
ENDBRANCH   1   4
BRANCH   1  34
ATOM     34  C   UNL     1     133.720 119.483 130.649  1.00  0.00     0.188 C 
BRANCH  34  35
ATOM     35  C   UNL     1     133.684 119.491 129.132  1.00  0.00     0.174 C 
BRANCH  35  36
ATOM     36  O   UNL     1     132.789 118.494 128.643  1.00  0.00    -0.395 OA
ATOM     37  H   UNL     1     132.014 118.467 129.243  1.00  0.00     0.210 HD
ENDBRANCH  35  36
ENDBRANCH  34  35
ENDBRANCH   1  34
TORSDOF 8
ENDMDL
MODEL 2
REMARK VINA RESULT:      -9.6      0.202      1.023
REMARK SMILES O=S(=O)(CCO)Nc1ccc(-c2ncccc2N2CCC(F)(F)CC2)c(N2CCC3(CC2)CC3)c1
REMARK SMILES IDX 2 1 1 2 3 3 7 4 8 6 11 7 10 8 26 9 9 10 35 11 12 12 13 13
REMARK SMILES IDX 17 14 14 15 16 16 15 17 18 18 19 19 25 20 20 21 24 22 21 23
REMARK SMILES IDX 22 24 23 25 27 26 28 27 32 28 29 29 31 30 30 31 33 32 34 33
REMARK SMILES IDX 4 34 5 35 6 36
REMARK H PARENT 7 5 6 37
REMARK Flexibility Score: inf
ROOT
ATOM      1  S   UNL     1     132.422 120.662 131.209  1.00  0.00     0.234 S 
ATOM      2  O   UNL     1     131.337 120.434 130.275  1.00  0.00    -0.207 OA
ATOM      3  O   UNL     1     132.930 121.994 131.449  1.00  0.00    -0.207 OA
ENDROOT
BRANCH   1   4
ATOM      4  N   UNL     1     131.929 119.965 132.661  1.00  0.00    -0.283 N 
ATOM      5  H   UNL     1     131.838 120.649 133.411  1.00  0.00     0.180 HD
BRANCH   4   6
ATOM      6  C   UNL     1     130.997 118.886 132.647  1.00  0.00     0.051 A 
ATOM      7  C   UNL     1     129.228 116.697 132.589  1.00  0.00     0.026 A 
ATOM      8  C   UNL     1     129.896 117.133 131.425  1.00  0.00     0.015 A 
ATOM      9  C   UNL     1     129.417 117.413 133.805  1.00  0.00     0.048 A 
ATOM     10  C   UNL     1     130.777 118.213 131.452  1.00  0.00     0.027 A 
ATOM     11  C   UNL     1     130.312 118.503 133.801  1.00  0.00     0.053 A 
BRANCH   7  12
ATOM     12  C   UNL     1     128.349 115.512 132.482  1.00  0.00     0.096 A 
ATOM     13  N   UNL     1     127.183 115.675 133.183  1.00  0.00    -0.254 NA
ATOM     14  C   UNL     1     128.681 114.327 131.777  1.00  0.00     0.063 A 
ATOM     15  C   UNL     1     126.341 114.628 133.254  1.00  0.00     0.112 A 
ATOM     16  C   UNL     1     127.759 113.272 131.914  1.00  0.00     0.030 A 
ATOM     17  C   UNL     1     126.588 113.413 132.655  1.00  0.00     0.022 A 
BRANCH  14  18
ATOM     18  N   UNL     1     129.795 114.151 130.960  1.00  0.00    -0.369 N 
ATOM     19  C   UNL     1     131.114 113.938 131.557  1.00  0.00     0.123 C 
ATOM     20  C   UNL     1     129.661 114.143 129.504  1.00  0.00     0.123 C 
ATOM     21  C   UNL     1     132.192 114.411 130.598  1.00  0.00     0.098 C 
ATOM     22  C   UNL     1     130.690 113.196 128.913  1.00  0.00     0.098 C 
ATOM     23  C   UNL     1     132.084 113.661 129.286  1.00  0.00     0.251 C 
ATOM     24  F   UNL     1     132.569 114.457 128.293  1.00  0.00    -0.207 F 
ATOM     25  F   UNL     1     132.905 112.576 129.318  1.00  0.00    -0.207 F 
ENDBRANCH  14  18
ENDBRANCH   7  12
BRANCH   9  26
ATOM     26  N   UNL     1     128.715 117.048 134.975  1.00  0.00    -0.371 N 
ATOM     27  C   UNL     1     129.215 115.891 135.743  1.00  0.00     0.117 C 
ATOM     28  C   UNL     1     128.419 118.219 135.834  1.00  0.00     0.117 C 
ATOM     29  C   UNL     1     128.151 115.452 136.758  1.00  0.00     0.028 C 
ATOM     30  C   UNL     1     127.338 117.844 136.856  1.00  0.00     0.028 C 
ATOM     31  C   UNL     1     127.742 116.612 137.644  1.00  0.00    -0.026 C 
ATOM     32  C   UNL     1     127.005 116.309 138.930  1.00  0.00     0.008 C 
ATOM     33  C   UNL     1     128.429 116.791 138.981  1.00  0.00     0.008 C 
ENDBRANCH   9  26
ENDBRANCH   4   6
ENDBRANCH   1   4
BRANCH   1  34
ATOM     34  C   UNL     1     133.781 119.614 130.711  1.00  0.00     0.188 C 
BRANCH  34  35
ATOM     35  C   UNL     1     133.798 119.483 129.200  1.00  0.00     0.174 C 
BRANCH  35  36
ATOM     36  O   UNL     1     132.830 118.529 128.765  1.00  0.00    -0.395 OA
ATOM     37  H   UNL     1     132.485 118.070 129.559  1.00  0.00     0.210 HD
ENDBRANCH  35  36
ENDBRANCH  34  35
ENDBRANCH   1  34
TORSDOF 8
ENDMDL
MODEL 3
REMARK VINA RESULT:      -8.9      3.326      6.410
REMARK SMILES O=S(=O)(CCO)Nc1ccc(-c2ncccc2N2CCC(F)(F)CC2)c(N2CCC3(CC2)CC3)c1
REMARK SMILES IDX 2 1 1 2 3 3 7 4 8 6 11 7 10 8 26 9 9 10 35 11 12 12 13 13
REMARK SMILES IDX 17 14 14 15 16 16 15 17 18 18 19 19 25 20 20 21 24 22 21 23
REMARK SMILES IDX 22 24 23 25 27 26 28 27 32 28 29 29 31 30 30 31 33 32 34 33
REMARK SMILES IDX 4 34 5 35 6 36
REMARK H PARENT 7 5 6 37
REMARK Flexibility Score: inf
ROOT
ATOM      1  S   UNL     1     131.029 121.258 134.516  1.00  0.00     0.234 S 
ATOM      2  O   UNL     1     131.301 120.183 135.449  1.00  0.00    -0.207 OA
ATOM      3  O   UNL     1     131.814 122.473 134.531  1.00  0.00    -0.207 OA
ENDROOT
BRANCH   1   4
ATOM      4  N   UNL     1     131.082 120.559 132.984  1.00  0.00    -0.283 N 
ATOM      5  H   UNL     1     131.968 120.728 132.508  1.00  0.00     0.180 HD
BRANCH   4   6
ATOM      6  C   UNL     1     130.452 119.300 132.760  1.00  0.00     0.051 A 
ATOM      7  C   UNL     1     129.133 116.860 132.283  1.00  0.00     0.026 A 
ATOM      8  C   UNL     1     128.586 117.834 133.144  1.00  0.00     0.015 A 
ATOM      9  C   UNL     1     130.402 117.099 131.683  1.00  0.00     0.048 A 
ATOM     10  C   UNL     1     129.235 119.046 133.378  1.00  0.00     0.027 A 
ATOM     11  C   UNL     1     131.036 118.331 131.941  1.00  0.00     0.053 A 
BRANCH   7  12
ATOM     12  C   UNL     1     128.354 115.623 132.050  1.00  0.00     0.096 A 
ATOM     13  N   UNL     1     128.383 115.240 130.735  1.00  0.00    -0.254 NA
ATOM     14  C   UNL     1     127.627 114.931 133.052  1.00  0.00     0.063 A 
ATOM     15  C   UNL     1     127.628 114.188 130.370  1.00  0.00     0.112 A 
ATOM     16  C   UNL     1     126.850 113.853 132.590  1.00  0.00     0.030 A 
ATOM     17  C   UNL     1     126.841 113.477 131.249  1.00  0.00     0.022 A 
BRANCH  14  18
ATOM     18  N   UNL     1     127.656 115.210 134.417  1.00  0.00    -0.369 N 
ATOM     19  C   UNL     1     128.935 115.247 135.129  1.00  0.00     0.123 C 
ATOM     20  C   UNL     1     126.423 115.501 135.148  1.00  0.00     0.123 C 
ATOM     21  C   UNL     1     128.713 114.918 136.594  1.00  0.00     0.098 C 
ATOM     22  C   UNL     1     126.723 116.497 136.254  1.00  0.00     0.098 C 
ATOM     23  C   UNL     1     127.744 115.908 137.207  1.00  0.00     0.251 C 
ATOM     24  F   UNL     1     127.092 115.295 138.234  1.00  0.00    -0.207 F 
ATOM     25  F   UNL     1     128.441 116.930 137.774  1.00  0.00    -0.207 F 
ENDBRANCH  14  18
ENDBRANCH   7  12
BRANCH   9  26
ATOM     26  N   UNL     1     131.012 116.119 130.868  1.00  0.00    -0.371 N 
ATOM     27  C   UNL     1     132.228 116.506 130.125  1.00  0.00     0.117 C 
ATOM     28  C   UNL     1     131.160 114.824 131.572  1.00  0.00     0.117 C 
ATOM     29  C   UNL     1     132.536 115.444 129.061  1.00  0.00     0.028 C 
ATOM     30  C   UNL     1     131.445 113.716 130.550  1.00  0.00     0.028 C 
ATOM     31  C   UNL     1     132.644 114.068 129.689  1.00  0.00    -0.026 C 
ATOM     32  C   UNL     1     133.306 112.965 128.893  1.00  0.00     0.008 C 
ATOM     33  C   UNL     1     134.010 113.549 130.087  1.00  0.00     0.008 C 
ENDBRANCH   9  26
ENDBRANCH   4   6
ENDBRANCH   1   4
BRANCH   1  34
ATOM     34  C   UNL     1     129.304 121.692 134.691  1.00  0.00     0.188 C 
BRANCH  34  35
ATOM     35  C   UNL     1     128.711 120.957 135.878  1.00  0.00     0.174 C 
BRANCH  35  36
ATOM     36  O   UNL     1     127.582 121.659 136.394  1.00  0.00    -0.395 OA
ATOM     37  H   UNL     1     127.878 122.165 137.180  1.00  0.00     0.210 HD
ENDBRANCH  35  36
ENDBRANCH  34  35
ENDBRANCH   1  34
TORSDOF 8
ENDMDL
MODEL 4
REMARK VINA RESULT:      -8.9      2.775      5.798
REMARK SMILES O=S(=O)(CCO)Nc1ccc(-c2ncccc2N2CCC(F)(F)CC2)c(N2CCC3(CC2)CC3)c1
REMARK SMILES IDX 2 1 1 2 3 3 7 4 8 6 11 7 10 8 26 9 9 10 35 11 12 12 13 13
REMARK SMILES IDX 17 14 14 15 16 16 15 17 18 18 19 19 25 20 20 21 24 22 21 23
REMARK SMILES IDX 22 24 23 25 27 26 28 27 32 28 29 29 31 30 30 31 33 32 34 33
REMARK SMILES IDX 4 34 5 35 6 36
REMARK H PARENT 7 5 6 37
REMARK Flexibility Score: inf
ROOT
ATOM      1  S   UNL     1     132.430 121.226 131.376  1.00  0.00     0.234 S 
ATOM      2  O   UNL     1     131.431 121.115 130.332  1.00  0.00    -0.207 OA
ATOM      3  O   UNL     1     132.996 122.508 131.731  1.00  0.00    -0.207 OA
ENDROOT
BRANCH   1   4
ATOM      4  N   UNL     1     131.752 120.501 132.737  1.00  0.00    -0.283 N 
ATOM      5  H   UNL     1     131.436 121.183 133.426  1.00  0.00     0.180 HD
BRANCH   4   6
ATOM      6  C   UNL     1     130.976 119.314 132.593  1.00  0.00     0.051 A 
ATOM      7  C   UNL     1     129.373 117.022 132.274  1.00  0.00     0.026 A 
ATOM      8  C   UNL     1     128.961 118.099 133.088  1.00  0.00     0.015 A 
ATOM      9  C   UNL     1     130.648 117.079 131.643  1.00  0.00     0.048 A 
ATOM     10  C   UNL     1     129.751 119.237 133.243  1.00  0.00     0.027 A 
ATOM     11  C   UNL     1     131.426 118.241 131.821  1.00  0.00     0.053 A 
BRANCH   7  12
ATOM     12  C   UNL     1     128.451 115.874 132.124  1.00  0.00     0.096 A 
ATOM     13  N   UNL     1     128.357 115.461 130.821  1.00  0.00    -0.254 NA
ATOM     14  C   UNL     1     127.716 115.290 133.186  1.00  0.00     0.063 A 
ATOM     15  C   UNL     1     127.472 114.491 130.531  1.00  0.00     0.112 A 
ATOM     16  C   UNL     1     126.798 114.295 132.801  1.00  0.00     0.030 A 
ATOM     17  C   UNL     1     126.667 113.892 131.474  1.00  0.00     0.022 A 
BRANCH  14  18
ATOM     18  N   UNL     1     127.858 115.595 134.538  1.00  0.00    -0.369 N 
ATOM     19  C   UNL     1     129.185 115.574 135.156  1.00  0.00     0.123 C 
ATOM     20  C   UNL     1     126.699 115.969 135.347  1.00  0.00     0.123 C 
ATOM     21  C   UNL     1     129.051 115.288 136.641  1.00  0.00     0.098 C 
ATOM     22  C   UNL     1     127.131 116.969 136.404  1.00  0.00     0.098 C 
ATOM     23  C   UNL     1     128.185 116.344 137.297  1.00  0.00     0.251 C 
ATOM     24  F   UNL     1     127.576 115.789 138.382  1.00  0.00    -0.207 F 
ATOM     25  F   UNL     1     128.976 117.336 137.788  1.00  0.00    -0.207 F 
ENDBRANCH  14  18
ENDBRANCH   7  12
BRANCH   9  26
ATOM     26  N   UNL     1     131.123 115.992 130.875  1.00  0.00    -0.371 N 
ATOM     27  C   UNL     1     132.345 116.200 130.074  1.00  0.00     0.117 C 
ATOM     28  C   UNL     1     131.161 114.733 131.657  1.00  0.00     0.117 C 
ATOM     29  C   UNL     1     132.501 115.049 129.071  1.00  0.00     0.028 C 
ATOM     30  C   UNL     1     131.291 113.541 130.701  1.00  0.00     0.028 C 
ATOM     31  C   UNL     1     132.488 113.710 129.784  1.00  0.00    -0.026 C 
ATOM     32  C   UNL     1     133.002 112.497 129.042  1.00  0.00     0.008 C 
ATOM     33  C   UNL     1     133.806 113.075 130.174  1.00  0.00     0.008 C 
ENDBRANCH   9  26
ENDBRANCH   4   6
ENDBRANCH   1   4
BRANCH   1  34
ATOM     34  C   UNL     1     133.762 120.110 130.959  1.00  0.00     0.188 C 
BRANCH  34  35
ATOM     35  C   UNL     1     133.664 119.722 129.496  1.00  0.00     0.174 C 
BRANCH  35  36
ATOM     36  O   UNL     1     134.668 118.767 129.158  1.00  0.00    -0.395 OA
ATOM     37  H   UNL     1     134.731 118.125 129.895  1.00  0.00     0.210 HD
ENDBRANCH  35  36
ENDBRANCH  34  35
ENDBRANCH   1  34
TORSDOF 8
ENDMDL
MODEL 5
REMARK VINA RESULT:      -8.8      2.810      5.805
REMARK SMILES O=S(=O)(CCO)Nc1ccc(-c2ncccc2N2CCC(F)(F)CC2)c(N2CCC3(CC2)CC3)c1
REMARK SMILES IDX 2 1 1 2 3 3 7 4 8 6 11 7 10 8 26 9 9 10 35 11 12 12 13 13
REMARK SMILES IDX 17 14 14 15 16 16 15 17 18 18 19 19 25 20 20 21 24 22 21 23
REMARK SMILES IDX 22 24 23 25 27 26 28 27 32 28 29 29 31 30 30 31 33 32 34 33
REMARK SMILES IDX 4 34 5 35 6 36
REMARK H PARENT 7 5 6 37
REMARK Flexibility Score: inf
ROOT
ATOM      1  S   UNL     1     132.544 121.203 131.372  1.00  0.00     0.234 S 
ATOM      2  O   UNL     1     131.569 121.343 130.310  1.00  0.00    -0.207 OA
ATOM      3  O   UNL     1     133.397 122.309 131.750  1.00  0.00    -0.207 OA
ENDROOT
BRANCH   1   4
ATOM      4  N   UNL     1     131.685 120.657 132.714  1.00  0.00    -0.283 N 
ATOM      5  H   UNL     1     131.305 121.422 133.272  1.00  0.00     0.180 HD
BRANCH   4   6
ATOM      6  C   UNL     1     130.902 119.470 132.617  1.00  0.00     0.051 A 
ATOM      7  C   UNL     1     129.282 117.179 132.390  1.00  0.00     0.026 A 
ATOM      8  C   UNL     1     128.899 118.272 133.195  1.00  0.00     0.015 A 
ATOM      9  C   UNL     1     130.538 117.219 131.720  1.00  0.00     0.048 A 
ATOM     10  C   UNL     1     129.697 119.410 133.305  1.00  0.00     0.027 A 
ATOM     11  C   UNL     1     131.324 118.381 131.851  1.00  0.00     0.053 A 
BRANCH   7  12
ATOM     12  C   UNL     1     128.353 116.031 132.290  1.00  0.00     0.096 A 
ATOM     13  N   UNL     1     128.224 115.590 130.999  1.00  0.00    -0.254 NA
ATOM     14  C   UNL     1     127.644 115.474 133.384  1.00  0.00     0.063 A 
ATOM     15  C   UNL     1     127.327 114.617 130.754  1.00  0.00     0.112 A 
ATOM     16  C   UNL     1     126.714 114.474 133.045  1.00  0.00     0.030 A 
ATOM     17  C   UNL     1     126.546 114.042 131.732  1.00  0.00     0.022 A 
BRANCH  14  18
ATOM     18  N   UNL     1     127.823 115.808 134.724  1.00  0.00    -0.369 N 
ATOM     19  C   UNL     1     126.680 116.246 135.527  1.00  0.00     0.123 C 
ATOM     20  C   UNL     1     129.137 115.695 135.355  1.00  0.00     0.123 C 
ATOM     21  C   UNL     1     127.162 117.133 136.660  1.00  0.00     0.098 C 
ATOM     22  C   UNL     1     128.959 115.312 136.813  1.00  0.00     0.098 C 
ATOM     23  C   UNL     1     128.151 116.379 137.526  1.00  0.00     0.251 C 
ATOM     24  F   UNL     1     129.002 117.279 138.092  1.00  0.00    -0.207 F 
ATOM     25  F   UNL     1     127.490 115.797 138.563  1.00  0.00    -0.207 F 
ENDBRANCH  14  18
ENDBRANCH   7  12
BRANCH   9  26
ATOM     26  N   UNL     1     130.986 116.116 130.958  1.00  0.00    -0.371 N 
ATOM     27  C   UNL     1     132.186 116.303 130.120  1.00  0.00     0.117 C 
ATOM     28  C   UNL     1     131.038 114.871 131.761  1.00  0.00     0.117 C 
ATOM     29  C   UNL     1     132.309 115.134 129.134  1.00  0.00     0.028 C 
ATOM     30  C   UNL     1     131.136 113.661 130.822  1.00  0.00     0.028 C 
ATOM     31  C   UNL     1     132.308 113.808 129.870  1.00  0.00    -0.026 C 
ATOM     32  C   UNL     1     132.795 112.579 129.136  1.00  0.00     0.008 C 
ATOM     33  C   UNL     1     133.633 113.172 130.235  1.00  0.00     0.008 C 
ENDBRANCH   9  26
ENDBRANCH   4   6
ENDBRANCH   1   4
BRANCH   1  34
ATOM     34  C   UNL     1     133.575 119.800 130.968  1.00  0.00     0.188 C 
BRANCH  34  35
ATOM     35  C   UNL     1     133.692 119.670 129.461  1.00  0.00     0.174 C 
BRANCH  35  36
ATOM     36  O   UNL     1     134.676 118.699 129.113  1.00  0.00    -0.395 OA
ATOM     37  H   UNL     1     134.541 117.916 129.686  1.00  0.00     0.210 HD
ENDBRANCH  35  36
ENDBRANCH  34  35
ENDBRANCH   1  34
TORSDOF 8
ENDMDL
MODEL 6
REMARK VINA RESULT:      -8.8      1.979      2.922
REMARK SMILES O=S(=O)(CCO)Nc1ccc(-c2ncccc2N2CCC(F)(F)CC2)c(N2CCC3(CC2)CC3)c1
REMARK SMILES IDX 2 1 1 2 3 3 7 4 8 6 11 7 10 8 26 9 9 10 35 11 12 12 13 13
REMARK SMILES IDX 17 14 14 15 16 16 15 17 18 18 19 19 25 20 20 21 24 22 21 23
REMARK SMILES IDX 22 24 23 25 27 26 28 27 32 28 29 29 31 30 30 31 33 32 34 33
REMARK SMILES IDX 4 34 5 35 6 36
REMARK H PARENT 7 5 6 37
REMARK Flexibility Score: inf
ROOT
ATOM      1  S   UNL     1     131.031 121.084 134.625  1.00  0.00     0.234 S 
ATOM      2  O   UNL     1     131.078 120.492 135.946  1.00  0.00    -0.207 OA
ATOM      3  O   UNL     1     131.785 122.280 134.318  1.00  0.00    -0.207 OA
ENDROOT
BRANCH   1   4
ATOM      4  N   UNL     1     131.448 119.852 133.556  1.00  0.00    -0.283 N 
ATOM      5  H   UNL     1     132.447 119.646 133.568  1.00  0.00     0.180 HD
BRANCH   4   6
ATOM      6  C   UNL     1     130.559 118.755 133.360  1.00  0.00     0.051 A 
ATOM      7  C   UNL     1     128.877 116.538 132.937  1.00  0.00     0.026 A 
ATOM      8  C   UNL     1     129.559 117.157 131.868  1.00  0.00     0.015 A 
ATOM      9  C   UNL     1     129.006 117.079 134.248  1.00  0.00     0.048 A 
ATOM     10  C   UNL     1     130.396 118.252 132.075  1.00  0.00     0.027 A 
ATOM     11  C   UNL     1     129.858 118.188 134.426  1.00  0.00     0.053 A 
BRANCH   7  12
ATOM     12  C   UNL     1     128.047 115.350 132.636  1.00  0.00     0.096 A 
ATOM     13  N   UNL     1     126.820 115.416 133.242  1.00  0.00    -0.254 NA
ATOM     14  C   UNL     1     128.475 114.249 131.851  1.00  0.00     0.063 A 
ATOM     15  C   UNL     1     126.008 114.350 133.135  1.00  0.00     0.112 A 
ATOM     16  C   UNL     1     127.578 113.166 131.801  1.00  0.00     0.030 A 
ATOM     17  C   UNL     1     126.343 113.207 132.444  1.00  0.00     0.022 A 
BRANCH  14  18
ATOM     18  N   UNL     1     129.661 114.181 131.124  1.00  0.00    -0.369 N 
ATOM     19  C   UNL     1     130.934 113.975 131.817  1.00  0.00     0.123 C 
ATOM     20  C   UNL     1     129.651 114.280 129.665  1.00  0.00     0.123 C 
ATOM     21  C   UNL     1     132.065 114.562 130.993  1.00  0.00     0.098 C 
ATOM     22  C   UNL     1     130.769 113.422 129.099  1.00  0.00     0.098 C 
ATOM     23  C   UNL     1     132.103 113.911 129.626  1.00  0.00     0.251 C 
ATOM     24  F   UNL     1     132.633 114.800 128.740  1.00  0.00    -0.207 F 
ATOM     25  F   UNL     1     132.967 112.860 129.650  1.00  0.00    -0.207 F 
ENDBRANCH  14  18
ENDBRANCH   7  12
BRANCH   9  26
ATOM     26  N   UNL     1     128.288 116.528 135.332  1.00  0.00    -0.371 N 
ATOM     27  C   UNL     1     129.059 115.855 136.395  1.00  0.00     0.117 C 
ATOM     28  C   UNL     1     127.279 117.472 135.868  1.00  0.00     0.117 C 
ATOM     29  C   UNL     1     128.106 115.044 137.284  1.00  0.00     0.028 C 
ATOM     30  C   UNL     1     126.280 116.708 136.747  1.00  0.00     0.028 C 
ATOM     31  C   UNL     1     126.999 115.925 137.829  1.00  0.00    -0.026 C 
ATOM     32  C   UNL     1     126.194 115.421 139.006  1.00  0.00     0.008 C 
ATOM     33  C   UNL     1     127.168 116.551 139.197  1.00  0.00     0.008 C 
ENDBRANCH   9  26
ENDBRANCH   4   6
ENDBRANCH   1   4
BRANCH   1  34
ATOM     34  C   UNL     1     129.312 121.379 134.234  1.00  0.00     0.188 C 
BRANCH  34  35
ATOM     35  C   UNL     1     128.436 120.848 135.353  1.00  0.00     0.174 C 
BRANCH  35  36
ATOM     36  O   UNL     1     128.420 121.754 136.455  1.00  0.00    -0.395 OA
ATOM     37  H   UNL     1     129.330 122.094 136.576  1.00  0.00     0.210 HD
ENDBRANCH  35  36
ENDBRANCH  34  35
ENDBRANCH   1  34
TORSDOF 8
ENDMDL
MODEL 7
REMARK VINA RESULT:      -8.6      3.338      6.403
REMARK SMILES O=S(=O)(CCO)Nc1ccc(-c2ncccc2N2CCC(F)(F)CC2)c(N2CCC3(CC2)CC3)c1
REMARK SMILES IDX 2 1 1 2 3 3 7 4 8 6 11 7 10 8 26 9 9 10 35 11 12 12 13 13
REMARK SMILES IDX 17 14 14 15 16 16 15 17 18 18 19 19 25 20 20 21 24 22 21 23
REMARK SMILES IDX 22 24 23 25 27 26 28 27 32 28 29 29 31 30 30 31 33 32 34 33
REMARK SMILES IDX 4 34 5 35 6 36
REMARK H PARENT 7 5 6 37
REMARK Flexibility Score: inf
ROOT
ATOM      1  S   UNL     1     130.888 121.429 134.500  1.00  0.00     0.234 S 
ATOM      2  O   UNL     1     132.038 122.296 134.652  1.00  0.00    -0.207 OA
ATOM      3  O   UNL     1     129.543 121.956 134.572  1.00  0.00    -0.207 OA
ENDROOT
BRANCH   1   4
ATOM      4  N   UNL     1     131.111 120.624 133.037  1.00  0.00    -0.283 N 
ATOM      5  H   UNL     1     132.056 120.736 132.670  1.00  0.00     0.180 HD
BRANCH   4   6
ATOM      6  C   UNL     1     130.471 119.369 132.816  1.00  0.00     0.051 A 
ATOM      7  C   UNL     1     129.132 116.939 132.344  1.00  0.00     0.026 A 
ATOM      8  C   UNL     1     128.593 117.920 133.203  1.00  0.00     0.015 A 
ATOM      9  C   UNL     1     130.403 117.167 131.744  1.00  0.00     0.048 A 
ATOM     10  C   UNL     1     129.252 119.127 133.435  1.00  0.00     0.027 A 
ATOM     11  C   UNL     1     131.047 118.395 131.998  1.00  0.00     0.053 A 
BRANCH   7  12
ATOM     12  C   UNL     1     128.343 115.708 132.114  1.00  0.00     0.096 A 
ATOM     13  N   UNL     1     128.376 115.317 130.802  1.00  0.00    -0.254 NA
ATOM     14  C   UNL     1     127.604 115.030 133.116  1.00  0.00     0.063 A 
ATOM     15  C   UNL     1     127.614 114.270 130.438  1.00  0.00     0.112 A 
ATOM     16  C   UNL     1     126.819 113.956 132.655  1.00  0.00     0.030 A 
ATOM     17  C   UNL     1     126.814 113.572 131.316  1.00  0.00     0.022 A 
BRANCH  14  18
ATOM     18  N   UNL     1     127.626 115.317 134.479  1.00  0.00    -0.369 N 
ATOM     19  C   UNL     1     126.377 115.598 135.188  1.00  0.00     0.123 C 
ATOM     20  C   UNL     1     128.884 115.309 135.225  1.00  0.00     0.123 C 
ATOM     21  C   UNL     1     126.660 116.475 136.393  1.00  0.00     0.098 C 
ATOM     22  C   UNL     1     128.619 114.842 136.645  1.00  0.00     0.098 C 
ATOM     23  C   UNL     1     127.642 115.786 137.318  1.00  0.00     0.251 C 
ATOM     24  F   UNL     1     128.340 116.740 137.995  1.00  0.00    -0.207 F 
ATOM     25  F   UNL     1     126.957 115.091 138.267  1.00  0.00    -0.207 F 
ENDBRANCH  14  18
ENDBRANCH   7  12
BRANCH   9  26
ATOM     26  N   UNL     1     131.005 116.181 130.931  1.00  0.00    -0.371 N 
ATOM     27  C   UNL     1     132.213 116.560 130.173  1.00  0.00     0.117 C 
ATOM     28  C   UNL     1     131.160 114.891 131.644  1.00  0.00     0.117 C 
ATOM     29  C   UNL     1     132.511 115.490 129.114  1.00  0.00     0.028 C 
ATOM     30  C   UNL     1     131.434 113.774 130.627  1.00  0.00     0.028 C 
ATOM     31  C   UNL     1     132.625 114.119 129.752  1.00  0.00    -0.026 C 
ATOM     32  C   UNL     1     133.278 113.010 128.959  1.00  0.00     0.008 C 
ATOM     33  C   UNL     1     133.994 113.604 130.141  1.00  0.00     0.008 C 
ENDBRANCH   9  26
ENDBRANCH   4   6
ENDBRANCH   1   4
BRANCH   1  34
ATOM     34  C   UNL     1     131.050 120.114 135.700  1.00  0.00     0.188 C 
BRANCH  34  35
ATOM     35  C   UNL     1     129.975 120.257 136.761  1.00  0.00     0.174 C 
BRANCH  35  36
ATOM     36  O   UNL     1     130.329 119.535 137.939  1.00  0.00    -0.395 OA
ATOM     37  H   UNL     1     130.948 120.091 138.457  1.00  0.00     0.210 HD
ENDBRANCH  35  36
ENDBRANCH  34  35
ENDBRANCH   1  34
TORSDOF 8
ENDMDL
MODEL 8
REMARK VINA RESULT:      -8.6      1.939      2.728
REMARK SMILES O=S(=O)(CCO)Nc1ccc(-c2ncccc2N2CCC(F)(F)CC2)c(N2CCC3(CC2)CC3)c1
REMARK SMILES IDX 2 1 1 2 3 3 7 4 8 6 11 7 10 8 26 9 9 10 35 11 12 12 13 13
REMARK SMILES IDX 17 14 14 15 16 16 15 17 18 18 19 19 25 20 20 21 24 22 21 23
REMARK SMILES IDX 22 24 23 25 27 26 28 27 32 28 29 29 31 30 30 31 33 32 34 33
REMARK SMILES IDX 4 34 5 35 6 36
REMARK H PARENT 7 5 6 37
REMARK Flexibility Score: inf
ROOT
ATOM      1  S   UNL     1     131.067 121.045 134.527  1.00  0.00     0.234 S 
ATOM      2  O   UNL     1     131.267 120.361 135.789  1.00  0.00    -0.207 OA
ATOM      3  O   UNL     1     131.772 122.271 134.226  1.00  0.00    -0.207 OA
ENDROOT
BRANCH   1   4
ATOM      4  N   UNL     1     131.371 119.899 133.332  1.00  0.00    -0.283 N 
ATOM      5  H   UNL     1     132.368 119.726 133.202  1.00  0.00     0.180 HD
BRANCH   4   6
ATOM      6  C   UNL     1     130.492 118.787 133.177  1.00  0.00     0.051 A 
ATOM      7  C   UNL     1     128.828 116.542 132.837  1.00  0.00     0.026 A 
ATOM      8  C   UNL     1     129.500 117.131 131.745  1.00  0.00     0.015 A 
ATOM      9  C   UNL     1     128.958 117.130 134.128  1.00  0.00     0.048 A 
ATOM     10  C   UNL     1     130.329 118.240 131.912  1.00  0.00     0.027 A 
ATOM     11  C   UNL     1     129.800 118.252 134.265  1.00  0.00     0.053 A 
BRANCH   7  12
ATOM     12  C   UNL     1     128.009 115.337 132.581  1.00  0.00     0.096 A 
ATOM     13  N   UNL     1     126.776 115.421 133.174  1.00  0.00    -0.254 NA
ATOM     14  C   UNL     1     128.449 114.208 131.846  1.00  0.00     0.063 A 
ATOM     15  C   UNL     1     125.971 114.346 133.106  1.00  0.00     0.112 A 
ATOM     16  C   UNL     1     127.559 113.118 131.834  1.00  0.00     0.030 A 
ATOM     17  C   UNL     1     126.319 113.177 132.466  1.00  0.00     0.022 A 
BRANCH  14  18
ATOM     18  N   UNL     1     129.641 114.117 131.130  1.00  0.00    -0.369 N 
ATOM     19  C   UNL     1     129.626 114.212 129.669  1.00  0.00     0.123 C 
ATOM     20  C   UNL     1     130.920 113.959 131.822  1.00  0.00     0.123 C 
ATOM     21  C   UNL     1     130.821 113.472 129.097  1.00  0.00     0.098 C 
ATOM     22  C   UNL     1     132.005 114.667 131.031  1.00  0.00     0.098 C 
ATOM     23  C   UNL     1     132.106 114.058 129.646  1.00  0.00     0.251 C 
ATOM     24  F   UNL     1     133.055 113.081 129.658  1.00  0.00    -0.207 F 
ATOM     25  F   UNL     1     132.570 115.009 128.791  1.00  0.00    -0.207 F 
ENDBRANCH  14  18
ENDBRANCH   7  12
BRANCH   9  26
ATOM     26  N   UNL     1     128.248 116.609 135.233  1.00  0.00    -0.371 N 
ATOM     27  C   UNL     1     128.985 115.748 136.178  1.00  0.00     0.117 C 
ATOM     28  C   UNL     1     127.443 117.649 135.917  1.00  0.00     0.117 C 
ATOM     29  C   UNL     1     127.989 115.022 137.093  1.00  0.00     0.028 C 
ATOM     30  C   UNL     1     126.408 116.977 136.829  1.00  0.00     0.028 C 
ATOM     31  C   UNL     1     127.078 116.014 137.790  1.00  0.00    -0.026 C 
ATOM     32  C   UNL     1     126.298 115.545 138.998  1.00  0.00     0.008 C 
ATOM     33  C   UNL     1     127.447 116.499 139.176  1.00  0.00     0.008 C 
ENDBRANCH   9  26
ENDBRANCH   4   6
ENDBRANCH   1   4
BRANCH   1  34
ATOM     34  C   UNL     1     129.312 121.338 134.353  1.00  0.00     0.188 C 
BRANCH  34  35
ATOM     35  C   UNL     1     128.577 120.758 135.546  1.00  0.00     0.174 C 
BRANCH  35  36
ATOM     36  O   UNL     1     127.777 121.754 136.180  1.00  0.00    -0.395 OA
ATOM     37  H   UNL     1     126.890 121.736 135.762  1.00  0.00     0.210 HD
ENDBRANCH  35  36
ENDBRANCH  34  35
ENDBRANCH   1  34
TORSDOF 8
ENDMDL
MODEL 9
REMARK VINA RESULT:      -8.5      1.487      2.005
REMARK SMILES O=S(=O)(CCO)Nc1ccc(-c2ncccc2N2CCC(F)(F)CC2)c(N2CCC3(CC2)CC3)c1
REMARK SMILES IDX 2 1 1 2 3 3 7 4 8 6 11 7 10 8 26 9 9 10 35 11 12 12 13 13
REMARK SMILES IDX 17 14 14 15 16 16 15 17 18 18 19 19 25 20 20 21 24 22 21 23
REMARK SMILES IDX 22 24 23 25 27 26 28 27 32 28 29 29 31 30 30 31 33 32 34 33
REMARK SMILES IDX 4 34 5 35 6 36
REMARK H PARENT 7 5 6 37
REMARK Flexibility Score: inf
ROOT
ATOM      1  S   UNL     1     131.050 121.179 134.117  1.00  0.00     0.234 S 
ATOM      2  O   UNL     1     129.667 121.387 133.736  1.00  0.00    -0.207 OA
ATOM      3  O   UNL     1     131.433 121.099 135.509  1.00  0.00    -0.207 OA
ENDROOT
BRANCH   1   4
ATOM      4  N   UNL     1     131.544 119.789 133.305  1.00  0.00    -0.283 N 
ATOM      5  H   UNL     1     132.525 119.565 133.475  1.00  0.00     0.180 HD
BRANCH   4   6
ATOM      6  C   UNL     1     130.642 118.694 133.162  1.00  0.00     0.051 A 
ATOM      7  C   UNL     1     128.932 116.480 132.847  1.00  0.00     0.026 A 
ATOM      8  C   UNL     1     129.634 117.029 131.752  1.00  0.00     0.015 A 
ATOM      9  C   UNL     1     129.056 117.094 134.126  1.00  0.00     0.048 A 
ATOM     10  C   UNL     1     130.485 118.122 131.906  1.00  0.00     0.027 A 
ATOM     11  C   UNL     1     129.922 118.200 134.251  1.00  0.00     0.053 A 
BRANCH   7  12
ATOM     12  C   UNL     1     128.089 115.289 132.605  1.00  0.00     0.096 A 
ATOM     13  N   UNL     1     126.881 115.378 133.247  1.00  0.00    -0.254 NA
ATOM     14  C   UNL     1     128.487 114.165 131.838  1.00  0.00     0.063 A 
ATOM     15  C   UNL     1     126.061 114.313 133.194  1.00  0.00     0.112 A 
ATOM     16  C   UNL     1     127.584 113.086 131.845  1.00  0.00     0.030 A 
ATOM     17  C   UNL     1     126.370 113.150 132.525  1.00  0.00     0.022 A 
BRANCH  14  18
ATOM     18  N   UNL     1     129.650 114.071 131.076  1.00  0.00    -0.369 N 
ATOM     19  C   UNL     1     130.939 113.853 131.734  1.00  0.00     0.123 C 
ATOM     20  C   UNL     1     129.597 114.154 129.617  1.00  0.00     0.123 C 
ATOM     21  C   UNL     1     132.054 114.414 130.870  1.00  0.00     0.098 C 
ATOM     22  C   UNL     1     130.684 113.273 129.028  1.00  0.00     0.098 C 
ATOM     23  C   UNL     1     132.042 113.747 129.509  1.00  0.00     0.251 C 
ATOM     24  F   UNL     1     132.557 114.618 128.597  1.00  0.00    -0.207 F 
ATOM     25  F   UNL     1     132.890 112.684 129.520  1.00  0.00    -0.207 F 
ENDBRANCH  14  18
ENDBRANCH   7  12
BRANCH   9  26
ATOM     26  N   UNL     1     128.318 116.615 135.232  1.00  0.00    -0.371 N 
ATOM     27  C   UNL     1     129.004 115.709 136.174  1.00  0.00     0.117 C 
ATOM     28  C   UNL     1     127.579 117.700 135.919  1.00  0.00     0.117 C 
ATOM     29  C   UNL     1     127.968 115.042 137.089  1.00  0.00     0.028 C 
ATOM     30  C   UNL     1     126.508 117.090 136.832  1.00  0.00     0.028 C 
ATOM     31  C   UNL     1     127.120 116.086 137.790  1.00  0.00    -0.026 C 
ATOM     32  C   UNL     1     126.316 115.663 138.999  1.00  0.00     0.008 C 
ATOM     33  C   UNL     1     127.521 116.545 139.176  1.00  0.00     0.008 C 
ENDBRANCH   9  26
ENDBRANCH   4   6
ENDBRANCH   1   4
BRANCH   1  34
ATOM     34  C   UNL     1     132.018 122.459 133.331  1.00  0.00     0.188 C 
BRANCH  34  35
ATOM     35  C   UNL     1     132.917 121.843 132.276  1.00  0.00     0.174 C 
BRANCH  35  36
ATOM     36  O   UNL     1     132.287 121.872 130.996  1.00  0.00    -0.395 OA
ATOM     37  H   UNL     1     131.324 121.756 131.134  1.00  0.00     0.210 HD
ENDBRANCH  35  36
ENDBRANCH  34  35
ENDBRANCH   1  34
TORSDOF 8
ENDMDL
