MODEL 1
REMARK VINA RESULT:     -12.2      0.000      0.000
REMARK SMILES O=S(=O)(CCO)Nc1ccc(-c2nc3cccc(N4CCC(F)(F)CC4)c3s2)c(N2CCC3(CC2)CC3)c1
REMARK SMILES IDX 2 1 1 2 3 3 7 4 8 6 11 7 10 8 29 9 9 10 38 11 12 12 28 13
REMARK SMILES IDX 13 14 27 15 14 16 18 17 15 18 17 19 16 20 19 21 20 22 26 23
REMARK SMILES IDX 21 24 25 25 22 26 23 27 24 28 30 29 31 30 35 31 32 32 34 33
REMARK SMILES IDX 33 34 36 35 37 36 4 37 5 38 6 39
REMARK H PARENT 7 5 6 40
REMARK Flexibility Score: inf
ROOT
ATOM      1  S   UNL     1     133.449 113.155 128.886  1.00  0.00     0.234 S 
ATOM      2  O   UNL     1     133.103 112.954 130.278  1.00  0.00    -0.207 OA
ATOM      3  O   UNL     1     132.762 112.464 127.816  1.00  0.00    -0.207 OA
ENDROOT
BRANCH   1   4
ATOM      4  N   UNL     1     133.376 114.809 128.486  1.00  0.00    -0.283 N 
ATOM      5  H   UNL     1     132.961 114.873 127.552  1.00  0.00     0.180 HD
BRANCH   4   6
ATOM      6  C   UNL     1     132.667 115.628 129.425  1.00  0.00     0.051 A 
ATOM      7  C   UNL     1     131.327 117.174 131.354  1.00  0.00     0.034 A 
ATOM      8  C   UNL     1     132.497 117.645 130.720  1.00  0.00     0.015 A 
ATOM      9  C   UNL     1     130.820 115.898 131.013  1.00  0.00     0.049 A 
ATOM     10  C   UNL     1     133.169 116.875 129.769  1.00  0.00     0.027 A 
ATOM     11  C   UNL     1     131.517 115.142 130.046  1.00  0.00     0.053 A 
BRANCH   7  12
ATOM     12  C   UNL     1     130.688 118.067 132.325  1.00  0.00     0.126 A 
ATOM     13  S   UNL     1     129.999 117.408 133.751  1.00  0.00    -0.111 S 
ATOM     14  N   UNL     1     130.629 119.375 132.224  1.00  0.00    -0.236 NA
ATOM     15  C   UNL     1     129.515 118.985 134.273  1.00  0.00     0.078 A 
ATOM     16  C   UNL     1     129.955 119.905 133.312  1.00  0.00     0.084 A 
ATOM     17  C   UNL     1     128.809 119.394 135.435  1.00  0.00     0.056 A 
ATOM     18  C   UNL     1     129.696 121.278 133.498  1.00  0.00     0.030 A 
ATOM     19  C   UNL     1     128.575 120.780 135.572  1.00  0.00     0.027 A 
ATOM     20  C   UNL     1     129.006 121.707 134.629  1.00  0.00     0.004 A 
BRANCH  17  21
ATOM     21  N   UNL     1     128.311 118.573 136.479  1.00  0.00    -0.370 N 
ATOM     22  C   UNL     1     129.348 118.168 137.439  1.00  0.00     0.123 C 
ATOM     23  C   UNL     1     127.472 117.467 135.998  1.00  0.00     0.123 C 
ATOM     24  C   UNL     1     128.662 117.595 138.670  1.00  0.00     0.098 C 
ATOM     25  C   UNL     1     126.733 116.876 137.188  1.00  0.00     0.098 C 
ATOM     26  C   UNL     1     127.730 116.475 138.256  1.00  0.00     0.251 C 
ATOM     27  F   UNL     1     127.059 116.025 139.349  1.00  0.00    -0.207 F 
ATOM     28  F   UNL     1     128.466 115.423 137.808  1.00  0.00    -0.207 F 
ENDBRANCH  17  21
ENDBRANCH   7  12
BRANCH   9  29
ATOM     29  N   UNL     1     129.668 115.277 131.531  1.00  0.00    -0.371 N 
ATOM     30  C   UNL     1     128.448 115.370 130.710  1.00  0.00     0.117 C 
ATOM     31  C   UNL     1     129.917 113.924 132.066  1.00  0.00     0.117 C 
ATOM     32  C   UNL     1     127.233 115.004 131.573  1.00  0.00     0.028 C 
ATOM     33  C   UNL     1     128.735 113.506 132.955  1.00  0.00     0.028 C 
ATOM     34  C   UNL     1     127.423 113.635 132.203  1.00  0.00    -0.026 C 
ATOM     35  C   UNL     1     126.867 112.421 131.490  1.00  0.00     0.008 C 
ATOM     36  C   UNL     1     126.208 112.918 132.747  1.00  0.00     0.008 C 
ENDBRANCH   9  29
ENDBRANCH   4   6
ENDBRANCH   1   4
BRANCH   1  37
ATOM     37  C   UNL     1     135.195 112.844 128.716  1.00  0.00     0.188 C 
BRANCH  37  38
ATOM     38  C   UNL     1     135.959 113.266 129.953  1.00  0.00     0.174 C 
BRANCH  38  39
ATOM     39  O   UNL     1     137.008 112.349 130.255  1.00  0.00    -0.395 OA
ATOM     40  H   UNL     1     137.605 112.778 130.903  1.00  0.00     0.210 HD
ENDBRANCH  38  39
ENDBRANCH  37  38
ENDBRANCH   1  37
TORSDOF 8
ENDMDL
MODEL 2
REMARK VINA RESULT:     -11.8      4.176      8.075
REMARK SMILES O=S(=O)(CCO)Nc1ccc(-c2nc3cccc(N4CCC(F)(F)CC4)c3s2)c(N2CCC3(CC2)CC3)c1
REMARK SMILES IDX 2 1 1 2 3 3 7 4 8 6 11 7 10 8 29 9 9 10 38 11 12 12 28 13
REMARK SMILES IDX 13 14 27 15 14 16 18 17 15 18 17 19 16 20 19 21 20 22 26 23
REMARK SMILES IDX 21 24 25 25 22 26 23 27 24 28 30 29 31 30 35 31 32 32 34 33
REMARK SMILES IDX 33 34 36 35 37 36 4 37 5 38 6 39
REMARK H PARENT 7 5 6 40
REMARK Flexibility Score: inf
ROOT
ATOM      1  S   UNL     1     128.101 117.660 138.903  1.00  0.00     0.234 S 
ATOM      2  O   UNL     1     129.331 116.984 138.547  1.00  0.00    -0.207 OA
ATOM      3  O   UNL     1     128.029 118.595 140.005  1.00  0.00    -0.207 OA
ENDROOT
BRANCH   1   4
ATOM      4  N   UNL     1     127.465 118.488 137.557  1.00  0.00    -0.283 N 
ATOM      5  H   UNL     1     127.315 119.459 137.845  1.00  0.00     0.180 HD
BRANCH   4   6
ATOM      6  C   UNL     1     128.265 118.418 136.370  1.00  0.00     0.051 A 
ATOM      7  C   UNL     1     129.745 118.323 133.980  1.00  0.00     0.034 A 
ATOM      8  C   UNL     1     129.900 119.384 134.898  1.00  0.00     0.015 A 
ATOM      9  C   UNL     1     128.824 117.288 134.268  1.00  0.00     0.049 A 
ATOM     10  C   UNL     1     129.161 119.437 136.080  1.00  0.00     0.027 A 
ATOM     11  C   UNL     1     128.091 117.366 135.472  1.00  0.00     0.053 A 
BRANCH   7  12
ATOM     12  C   UNL     1     130.581 118.352 132.777  1.00  0.00     0.126 A 
ATOM     13  S   UNL     1     131.026 116.877 132.023  1.00  0.00    -0.111 S 
ATOM     14  N   UNL     1     131.002 119.441 132.176  1.00  0.00    -0.236 NA
ATOM     15  C   UNL     1     131.914 117.738 130.812  1.00  0.00     0.078 A 
ATOM     16  C   UNL     1     131.770 119.107 131.071  1.00  0.00     0.084 A 
ATOM     17  C   UNL     1     132.676 117.259 129.714  1.00  0.00     0.056 A 
ATOM     18  C   UNL     1     132.394 120.042 130.222  1.00  0.00     0.030 A 
ATOM     19  C   UNL     1     133.281 118.238 128.896  1.00  0.00     0.027 A 
ATOM     20  C   UNL     1     133.147 119.600 129.138  1.00  0.00     0.004 A 
BRANCH  17  21
ATOM     21  N   UNL     1     132.901 115.909 129.340  1.00  0.00    -0.370 N 
ATOM     22  C   UNL     1     131.870 114.991 129.844  1.00  0.00     0.123 C 
ATOM     23  C   UNL     1     134.279 115.460 129.587  1.00  0.00     0.123 C 
ATOM     24  C   UNL     1     132.015 113.663 129.116  1.00  0.00     0.098 C 
ATOM     25  C   UNL     1     134.491 114.146 128.852  1.00  0.00     0.098 C 
ATOM     26  C   UNL     1     133.432 113.151 129.276  1.00  0.00     0.251 C 
ATOM     27  F   UNL     1     133.577 112.008 128.554  1.00  0.00    -0.207 F 
ATOM     28  F   UNL     1     133.639 112.803 130.574  1.00  0.00    -0.207 F 
ENDBRANCH  17  21
ENDBRANCH   7  12
BRANCH   9  29
ATOM     29  N   UNL     1     128.548 116.155 133.480  1.00  0.00    -0.371 N 
ATOM     30  C   UNL     1     128.763 114.845 134.118  1.00  0.00     0.117 C 
ATOM     31  C   UNL     1     127.276 116.248 132.737  1.00  0.00     0.117 C 
ATOM     32  C   UNL     1     128.801 113.759 133.034  1.00  0.00     0.028 C 
ATOM     33  C   UNL     1     127.261 115.189 131.624  1.00  0.00     0.028 C 
ATOM     34  C   UNL     1     127.541 113.808 132.189  1.00  0.00    -0.026 C 
ATOM     35  C   UNL     1     126.372 112.924 132.569  1.00  0.00     0.008 C 
ATOM     36  C   UNL     1     127.189 112.602 131.348  1.00  0.00     0.008 C 
ENDBRANCH   9  29
ENDBRANCH   4   6
ENDBRANCH   1   4
BRANCH   1  37
ATOM     37  C   UNL     1     126.854 116.413 139.152  1.00  0.00     0.188 C 
BRANCH  37  38
ATOM     38  C   UNL     1     126.711 115.518 137.939  1.00  0.00     0.174 C 
BRANCH  38  39
ATOM     39  O   UNL     1     127.922 114.820 137.661  1.00  0.00    -0.395 OA
ATOM     40  H   UNL     1     128.545 114.994 138.397  1.00  0.00     0.210 HD
ENDBRANCH  38  39
ENDBRANCH  37  38
ENDBRANCH   1  37
TORSDOF 8
ENDMDL
MODEL 3
REMARK VINA RESULT:     -11.8      0.779      1.332
REMARK SMILES O=S(=O)(CCO)Nc1ccc(-c2nc3cccc(N4CCC(F)(F)CC4)c3s2)c(N2CCC3(CC2)CC3)c1
REMARK SMILES IDX 2 1 1 2 3 3 7 4 8 6 11 7 10 8 29 9 9 10 38 11 12 12 28 13
REMARK SMILES IDX 13 14 27 15 14 16 18 17 15 18 17 19 16 20 19 21 20 22 26 23
REMARK SMILES IDX 21 24 25 25 22 26 23 27 24 28 30 29 31 30 35 31 32 32 34 33
REMARK SMILES IDX 33 34 36 35 37 36 4 37 5 38 6 39
REMARK H PARENT 7 5 6 40
REMARK Flexibility Score: inf
ROOT
ATOM      1  S   UNL     1     134.434 113.895 129.416  1.00  0.00     0.234 S 
ATOM      2  O   UNL     1     135.661 114.591 129.741  1.00  0.00    -0.207 OA
ATOM      3  O   UNL     1     133.693 113.140 130.403  1.00  0.00    -0.207 OA
ENDROOT
BRANCH   1   4
ATOM      4  N   UNL     1     133.308 114.965 128.717  1.00  0.00    -0.283 N 
ATOM      5  H   UNL     1     132.672 114.401 128.146  1.00  0.00     0.180 HD
BRANCH   4   6
ATOM      6  C   UNL     1     132.584 115.776 129.651  1.00  0.00     0.051 A 
ATOM      7  C   UNL     1     131.211 117.306 131.569  1.00  0.00     0.034 A 
ATOM      8  C   UNL     1     132.387 117.786 130.952  1.00  0.00     0.015 A 
ATOM      9  C   UNL     1     130.715 116.029 131.217  1.00  0.00     0.049 A 
ATOM     10  C   UNL     1     133.074 117.024 130.006  1.00  0.00     0.027 A 
ATOM     11  C   UNL     1     131.429 115.281 130.255  1.00  0.00     0.053 A 
BRANCH   7  12
ATOM     12  C   UNL     1     130.556 118.191 132.537  1.00  0.00     0.126 A 
ATOM     13  S   UNL     1     129.844 117.521 133.946  1.00  0.00    -0.111 S 
ATOM     14  N   UNL     1     130.497 119.500 132.445  1.00  0.00    -0.236 NA
ATOM     15  C   UNL     1     129.350 119.094 134.473  1.00  0.00     0.078 A 
ATOM     16  C   UNL     1     129.804 120.022 133.526  1.00  0.00     0.084 A 
ATOM     17  C   UNL     1     128.625 119.494 135.626  1.00  0.00     0.056 A 
ATOM     18  C   UNL     1     129.541 121.392 133.718  1.00  0.00     0.030 A 
ATOM     19  C   UNL     1     128.388 120.878 135.769  1.00  0.00     0.027 A 
ATOM     20  C   UNL     1     128.833 121.812 134.840  1.00  0.00     0.004 A 
BRANCH  17  21
ATOM     21  N   UNL     1     128.111 118.664 136.656  1.00  0.00    -0.370 N 
ATOM     22  C   UNL     1     129.048 118.485 137.774  1.00  0.00     0.123 C 
ATOM     23  C   UNL     1     127.525 117.413 136.155  1.00  0.00     0.123 C 
ATOM     24  C   UNL     1     128.286 117.881 138.944  1.00  0.00     0.098 C 
ATOM     25  C   UNL     1     126.720 116.779 137.279  1.00  0.00     0.098 C 
ATOM     26  C   UNL     1     127.603 116.605 138.498  1.00  0.00     0.251 C 
ATOM     27  F   UNL     1     126.856 116.116 139.524  1.00  0.00    -0.207 F 
ATOM     28  F   UNL     1     128.545 115.659 138.237  1.00  0.00    -0.207 F 
ENDBRANCH  17  21
ENDBRANCH   7  12
BRANCH   9  29
ATOM     29  N   UNL     1     129.561 115.400 131.718  1.00  0.00    -0.371 N 
ATOM     30  C   UNL     1     128.335 115.545 130.915  1.00  0.00     0.117 C 
ATOM     31  C   UNL     1     129.798 114.020 132.189  1.00  0.00     0.117 C 
ATOM     32  C   UNL     1     127.123 115.155 131.773  1.00  0.00     0.028 C 
ATOM     33  C   UNL     1     128.619 113.577 133.070  1.00  0.00     0.028 C 
ATOM     34  C   UNL     1     127.301 113.756 132.338  1.00  0.00    -0.026 C 
ATOM     35  C   UNL     1     126.724 112.583 131.577  1.00  0.00     0.008 C 
ATOM     36  C   UNL     1     126.083 113.030 132.862  1.00  0.00     0.008 C 
ENDBRANCH   9  29
ENDBRANCH   4   6
ENDBRANCH   1   4
BRANCH   1  37
ATOM     37  C   UNL     1     134.775 112.818 128.037  1.00  0.00     0.188 C 
BRANCH  37  38
ATOM     38  C   UNL     1     133.604 112.751 127.080  1.00  0.00     0.174 C 
BRANCH  38  39
ATOM     39  O   UNL     1     133.499 113.940 126.302  1.00  0.00    -0.395 OA
ATOM     40  H   UNL     1     132.606 113.957 125.897  1.00  0.00     0.210 HD
ENDBRANCH  38  39
ENDBRANCH  37  38
ENDBRANCH   1  37
TORSDOF 8
ENDMDL
MODEL 4
REMARK VINA RESULT:     -11.7      0.992      1.223
REMARK SMILES O=S(=O)(CCO)Nc1ccc(-c2nc3cccc(N4CCC(F)(F)CC4)c3s2)c(N2CCC3(CC2)CC3)c1
REMARK SMILES IDX 2 1 1 2 3 3 7 4 8 6 11 7 10 8 29 9 9 10 38 11 12 12 28 13
REMARK SMILES IDX 13 14 27 15 14 16 18 17 15 18 17 19 16 20 19 21 20 22 26 23
REMARK SMILES IDX 21 24 25 25 22 26 23 27 24 28 30 29 31 30 35 31 32 32 34 33
REMARK SMILES IDX 33 34 36 35 37 36 4 37 5 38 6 39
REMARK H PARENT 7 5 6 40
REMARK Flexibility Score: inf
ROOT
ATOM      1  S   UNL     1     134.149 113.141 128.391  1.00  0.00     0.234 S 
ATOM      2  O   UNL     1     133.349 112.274 129.231  1.00  0.00    -0.207 OA
ATOM      3  O   UNL     1     134.863 112.646 127.234  1.00  0.00    -0.207 OA
ENDROOT
BRANCH   1   4
ATOM      4  N   UNL     1     133.217 114.451 127.828  1.00  0.00    -0.283 N 
ATOM      5  H   UNL     1     132.469 114.060 127.249  1.00  0.00     0.180 HD
BRANCH   4   6
ATOM      6  C   UNL     1     132.686 115.300 128.854  1.00  0.00     0.051 A 
ATOM      7  C   UNL     1     131.695 116.898 130.945  1.00  0.00     0.034 A 
ATOM      8  C   UNL     1     132.852 117.267 130.224  1.00  0.00     0.015 A 
ATOM      9  C   UNL     1     131.023 115.700 130.610  1.00  0.00     0.049 A 
ATOM     10  C   UNL     1     133.350 116.471 129.192  1.00  0.00     0.027 A 
ATOM     11  C   UNL     1     131.547 114.915 129.560  1.00  0.00     0.053 A 
BRANCH   7  12
ATOM     12  C   UNL     1     131.245 117.812 131.999  1.00  0.00     0.126 A 
ATOM     13  S   UNL     1     130.490 117.176 133.401  1.00  0.00    -0.111 S 
ATOM     14  N   UNL     1     131.409 119.115 131.990  1.00  0.00    -0.236 NA
ATOM     15  C   UNL     1     130.298 118.770 134.049  1.00  0.00     0.078 A 
ATOM     16  C   UNL     1     130.864 119.670 133.137  1.00  0.00     0.084 A 
ATOM     17  C   UNL     1     129.704 119.205 135.262  1.00  0.00     0.056 A 
ATOM     18  C   UNL     1     130.850 121.049 133.426  1.00  0.00     0.030 A 
ATOM     19  C   UNL     1     129.715 120.596 135.502  1.00  0.00     0.027 A 
ATOM     20  C   UNL     1     130.274 121.504 134.609  1.00  0.00     0.004 A 
BRANCH  17  21
ATOM     21  N   UNL     1     129.100 118.405 136.266  1.00  0.00    -0.370 N 
ATOM     22  C   UNL     1     128.002 119.089 136.965  1.00  0.00     0.123 C 
ATOM     23  C   UNL     1     130.072 117.760 137.158  1.00  0.00     0.123 C 
ATOM     24  C   UNL     1     127.221 118.051 137.758  1.00  0.00     0.098 C 
ATOM     25  C   UNL     1     129.350 116.685 137.955  1.00  0.00     0.098 C 
ATOM     26  C   UNL     1     128.164 117.298 138.673  1.00  0.00     0.251 C 
ATOM     27  F   UNL     1     127.475 116.317 139.315  1.00  0.00    -0.207 F 
ATOM     28  F   UNL     1     128.614 118.137 139.643  1.00  0.00    -0.207 F 
ENDBRANCH  17  21
ENDBRANCH   7  12
BRANCH   9  29
ATOM     29  N   UNL     1     129.859 115.184 131.208  1.00  0.00    -0.371 N 
ATOM     30  C   UNL     1     128.617 115.290 130.424  1.00  0.00     0.117 C 
ATOM     31  C   UNL     1     130.052 113.859 131.831  1.00  0.00     0.117 C 
ATOM     32  C   UNL     1     127.416 115.056 131.351  1.00  0.00     0.028 C 
ATOM     33  C   UNL     1     128.882 113.573 132.786  1.00  0.00     0.028 C 
ATOM     34  C   UNL     1     127.552 113.726 132.070  1.00  0.00    -0.026 C 
ATOM     35  C   UNL     1     126.904 112.499 131.465  1.00  0.00     0.008 C 
ATOM     36  C   UNL     1     126.321 113.120 132.704  1.00  0.00     0.008 C 
ENDBRANCH   9  29
ENDBRANCH   4   6
ENDBRANCH   1   4
BRANCH   1  37
ATOM     37  C   UNL     1     135.314 113.984 129.442  1.00  0.00     0.188 C 
BRANCH  37  38
ATOM     38  C   UNL     1     136.043 113.018 130.353  1.00  0.00     0.174 C 
BRANCH  38  39
ATOM     39  O   UNL     1     136.277 111.770 129.707  1.00  0.00    -0.395 OA
ATOM     40  H   UNL     1     137.147 111.821 129.259  1.00  0.00     0.210 HD
ENDBRANCH  38  39
ENDBRANCH  37  38
ENDBRANCH   1  37
TORSDOF 8
ENDMDL
MODEL 5
REMARK VINA RESULT:     -11.5      0.678      1.045
REMARK SMILES O=S(=O)(CCO)Nc1ccc(-c2nc3cccc(N4CCC(F)(F)CC4)c3s2)c(N2CCC3(CC2)CC3)c1
REMARK SMILES IDX 2 1 1 2 3 3 7 4 8 6 11 7 10 8 29 9 9 10 38 11 12 12 28 13
REMARK SMILES IDX 13 14 27 15 14 16 18 17 15 18 17 19 16 20 19 21 20 22 26 23
REMARK SMILES IDX 21 24 25 25 22 26 23 27 24 28 30 29 31 30 35 31 32 32 34 33
REMARK SMILES IDX 33 34 36 35 37 36 4 37 5 38 6 39
REMARK H PARENT 7 5 6 40
REMARK Flexibility Score: inf
ROOT
ATOM      1  S   UNL     1     133.756 113.428 128.586  1.00  0.00     0.234 S 
ATOM      2  O   UNL     1     132.642 112.797 129.263  1.00  0.00    -0.207 OA
ATOM      3  O   UNL     1     134.380 112.839 127.420  1.00  0.00    -0.207 OA
ENDROOT
BRANCH   1   4
ATOM      4  N   UNL     1     133.357 115.021 128.137  1.00  0.00    -0.283 N 
ATOM      5  H   UNL     1     132.801 114.961 127.280  1.00  0.00     0.180 HD
BRANCH   4   6
ATOM      6  C   UNL     1     132.675 115.780 129.144  1.00  0.00     0.051 A 
ATOM      7  C   UNL     1     131.391 117.205 131.200  1.00  0.00     0.034 A 
ATOM      8  C   UNL     1     132.531 117.723 130.550  1.00  0.00     0.015 A 
ATOM      9  C   UNL     1     130.885 115.942 130.812  1.00  0.00     0.049 A 
ATOM     10  C   UNL     1     133.175 117.014 129.535  1.00  0.00     0.027 A 
ATOM     11  C   UNL     1     131.555 115.247 129.781  1.00  0.00     0.053 A 
BRANCH   7  12
ATOM     12  C   UNL     1     130.779 118.036 132.241  1.00  0.00     0.126 A 
ATOM     13  S   UNL     1     130.177 117.297 133.667  1.00  0.00    -0.111 S 
ATOM     14  N   UNL     1     130.683 119.346 132.203  1.00  0.00    -0.236 NA
ATOM     15  C   UNL     1     129.681 118.837 134.283  1.00  0.00     0.078 A 
ATOM     16  C   UNL     1     130.051 119.810 133.345  1.00  0.00     0.084 A 
ATOM     17  C   UNL     1     129.024 119.175 135.495  1.00  0.00     0.056 A 
ATOM     18  C   UNL     1     129.768 121.165 133.606  1.00  0.00     0.030 A 
ATOM     19  C   UNL     1     128.764 120.547 135.706  1.00  0.00     0.027 A 
ATOM     20  C   UNL     1     129.125 121.525 134.786  1.00  0.00     0.004 A 
BRANCH  17  21
ATOM     21  N   UNL     1     128.598 118.296 136.523  1.00  0.00    -0.370 N 
ATOM     22  C   UNL     1     127.745 117.204 136.032  1.00  0.00     0.123 C 
ATOM     23  C   UNL     1     128.063 118.994 137.700  1.00  0.00     0.123 C 
ATOM     24  C   UNL     1     127.634 116.155 137.128  1.00  0.00     0.098 C 
ATOM     25  C   UNL     1     127.960 117.995 138.842  1.00  0.00     0.098 C 
ATOM     26  C   UNL     1     127.135 116.804 138.402  1.00  0.00     0.251 C 
ATOM     27  F   UNL     1     127.117 115.879 139.398  1.00  0.00    -0.207 F 
ATOM     28  F   UNL     1     125.843 117.194 138.230  1.00  0.00    -0.207 F 
ENDBRANCH  17  21
ENDBRANCH   7  12
BRANCH   9  29
ATOM     29  N   UNL     1     129.762 115.280 131.338  1.00  0.00    -0.371 N 
ATOM     30  C   UNL     1     128.522 115.363 130.547  1.00  0.00     0.117 C 
ATOM     31  C   UNL     1     130.055 113.920 131.832  1.00  0.00     0.117 C 
ATOM     32  C   UNL     1     127.335 114.945 131.426  1.00  0.00     0.028 C 
ATOM     33  C   UNL     1     128.903 113.449 132.735  1.00  0.00     0.028 C 
ATOM     34  C   UNL     1     127.572 113.565 132.016  1.00  0.00    -0.026 C 
ATOM     35  C   UNL     1     127.031 112.357 131.283  1.00  0.00     0.008 C 
ATOM     36  C   UNL     1     126.388 112.804 132.567  1.00  0.00     0.008 C 
ENDBRANCH   9  29
ENDBRANCH   4   6
ENDBRANCH   1   4
BRANCH   1  37
ATOM     37  C   UNL     1     135.025 113.728 129.801  1.00  0.00     0.188 C 
BRANCH  37  38
ATOM     38  C   UNL     1     136.293 112.964 129.482  1.00  0.00     0.174 C 
BRANCH  38  39
ATOM     39  O   UNL     1     136.955 112.536 130.669  1.00  0.00    -0.395 OA
ATOM     40  H   UNL     1     137.274 113.334 131.140  1.00  0.00     0.210 HD
ENDBRANCH  38  39
ENDBRANCH  37  38
ENDBRANCH   1  37
TORSDOF 8
ENDMDL
MODEL 6
REMARK VINA RESULT:     -11.2      0.957      1.340
REMARK SMILES O=S(=O)(CCO)Nc1ccc(-c2nc3cccc(N4CCC(F)(F)CC4)c3s2)c(N2CCC3(CC2)CC3)c1
REMARK SMILES IDX 2 1 1 2 3 3 7 4 8 6 11 7 10 8 29 9 9 10 38 11 12 12 28 13
REMARK SMILES IDX 13 14 27 15 14 16 18 17 15 18 17 19 16 20 19 21 20 22 26 23
REMARK SMILES IDX 21 24 25 25 22 26 23 27 24 28 30 29 31 30 35 31 32 32 34 33
REMARK SMILES IDX 33 34 36 35 37 36 4 37 5 38 6 39
REMARK H PARENT 7 5 6 40
REMARK Flexibility Score: inf
ROOT
ATOM      1  S   UNL     1     134.723 112.980 128.735  1.00  0.00     0.234 S 
ATOM      2  O   UNL     1     134.028 112.056 129.607  1.00  0.00    -0.207 OA
ATOM      3  O   UNL     1     135.582 112.526 127.662  1.00  0.00    -0.207 OA
ENDROOT
BRANCH   1   4
ATOM      4  N   UNL     1     133.625 114.064 128.015  1.00  0.00    -0.283 N 
ATOM      5  H   UNL     1     132.972 113.505 127.459  1.00  0.00     0.180 HD
BRANCH   4   6
ATOM      6  C   UNL     1     132.925 114.915 128.933  1.00  0.00     0.051 A 
ATOM      7  C   UNL     1     131.601 116.523 130.821  1.00  0.00     0.034 A 
ATOM      8  C   UNL     1     132.785 116.959 130.189  1.00  0.00     0.015 A 
ATOM      9  C   UNL     1     131.071 115.252 130.500  1.00  0.00     0.049 A 
ATOM     10  C   UNL     1     133.448 116.158 129.258  1.00  0.00     0.027 A 
ATOM     11  C   UNL     1     131.761 114.464 129.554  1.00  0.00     0.053 A 
BRANCH   7  12
ATOM     12  C   UNL     1     130.973 117.447 131.770  1.00  0.00     0.126 A 
ATOM     13  S   UNL     1     130.330 116.838 133.240  1.00  0.00    -0.111 S 
ATOM     14  N   UNL     1     130.889 118.748 131.616  1.00  0.00    -0.236 NA
ATOM     15  C   UNL     1     129.834 118.429 133.708  1.00  0.00     0.078 A 
ATOM     16  C   UNL     1     130.234 119.314 132.698  1.00  0.00     0.084 A 
ATOM     17  C   UNL     1     129.152 118.877 134.870  1.00  0.00     0.056 A 
ATOM     18  C   UNL     1     129.958 120.689 132.833  1.00  0.00     0.030 A 
ATOM     19  C   UNL     1     128.899 120.263 134.954  1.00  0.00     0.027 A 
ATOM     20  C   UNL     1     129.291 121.155 133.962  1.00  0.00     0.004 A 
BRANCH  17  21
ATOM     21  N   UNL     1     128.694 118.093 135.960  1.00  0.00    -0.370 N 
ATOM     22  C   UNL     1     129.786 117.559 136.786  1.00  0.00     0.123 C 
ATOM     23  C   UNL     1     127.687 117.094 135.575  1.00  0.00     0.123 C 
ATOM     24  C   UNL     1     129.192 117.039 138.086  1.00  0.00     0.098 C 
ATOM     25  C   UNL     1     127.034 116.562 136.841  1.00  0.00     0.098 C 
ATOM     26  C   UNL     1     128.101 116.034 137.778  1.00  0.00     0.251 C 
ATOM     27  F   UNL     1     127.518 115.637 138.941  1.00  0.00    -0.207 F 
ATOM     28  F   UNL     1     128.658 114.918 137.238  1.00  0.00    -0.207 F 
ENDBRANCH  17  21
ENDBRANCH   7  12
BRANCH   9  29
ATOM     29  N   UNL     1     129.904 114.664 131.020  1.00  0.00    -0.371 N 
ATOM     30  C   UNL     1     129.914 114.348 132.459  1.00  0.00     0.117 C 
ATOM     31  C   UNL     1     128.660 115.320 130.570  1.00  0.00     0.117 C 
ATOM     32  C   UNL     1     128.764 113.380 132.770  1.00  0.00     0.028 C 
ATOM     33  C   UNL     1     127.468 114.389 130.843  1.00  0.00     0.028 C 
ATOM     34  C   UNL     1     127.441 113.959 132.298  1.00  0.00    -0.026 C 
ATOM     35  C   UNL     1     126.602 114.751 133.278  1.00  0.00     0.008 C 
ATOM     36  C   UNL     1     126.161 113.377 132.853  1.00  0.00     0.008 C 
ENDBRANCH   9  29
ENDBRANCH   4   6
ENDBRANCH   1   4
BRANCH   1  37
ATOM     37  C   UNL     1     135.664 114.088 129.765  1.00  0.00     0.188 C 
BRANCH  37  38
ATOM     38  C   UNL     1     136.387 113.344 130.868  1.00  0.00     0.174 C 
BRANCH  38  39
ATOM     39  O   UNL     1     137.094 112.217 130.360  1.00  0.00    -0.395 OA
ATOM     40  H   UNL     1     136.467 111.681 129.831  1.00  0.00     0.210 HD
ENDBRANCH  38  39
ENDBRANCH  37  38
ENDBRANCH   1  37
TORSDOF 8
ENDMDL
MODEL 7
REMARK VINA RESULT:     -10.9      0.924      1.496
REMARK SMILES O=S(=O)(CCO)Nc1ccc(-c2nc3cccc(N4CCC(F)(F)CC4)c3s2)c(N2CCC3(CC2)CC3)c1
REMARK SMILES IDX 2 1 1 2 3 3 7 4 8 6 11 7 10 8 29 9 9 10 38 11 12 12 28 13
REMARK SMILES IDX 13 14 27 15 14 16 18 17 15 18 17 19 16 20 19 21 20 22 26 23
REMARK SMILES IDX 21 24 25 25 22 26 23 27 24 28 30 29 31 30 35 31 32 32 34 33
REMARK SMILES IDX 33 34 36 35 37 36 4 37 5 38 6 39
REMARK H PARENT 7 5 6 40
REMARK Flexibility Score: inf
ROOT
ATOM      1  S   UNL     1     134.262 113.081 128.592  1.00  0.00     0.234 S 
ATOM      2  O   UNL     1     133.234 112.337 129.290  1.00  0.00    -0.207 OA
ATOM      3  O   UNL     1     135.018 112.508 127.499  1.00  0.00    -0.207 OA
ENDROOT
BRANCH   1   4
ATOM      4  N   UNL     1     133.638 114.550 127.998  1.00  0.00    -0.283 N 
ATOM      5  H   UNL     1     133.052 114.321 127.190  1.00  0.00     0.180 HD
BRANCH   4   6
ATOM      6  C   UNL     1     132.914 115.331 128.957  1.00  0.00     0.051 A 
ATOM      7  C   UNL     1     131.545 116.804 130.923  1.00  0.00     0.034 A 
ATOM      8  C   UNL     1     132.701 117.315 130.295  1.00  0.00     0.015 A 
ATOM      9  C   UNL     1     131.066 115.524 130.557  1.00  0.00     0.049 A 
ATOM     10  C   UNL     1     133.387 116.582 129.326  1.00  0.00     0.027 A 
ATOM     11  C   UNL     1     131.778 114.806 129.571  1.00  0.00     0.053 A 
BRANCH   7  12
ATOM     12  C   UNL     1     130.889 117.660 131.915  1.00  0.00     0.126 A 
ATOM     13  S   UNL     1     130.317 116.971 133.378  1.00  0.00    -0.111 S 
ATOM     14  N   UNL     1     130.730 118.959 131.806  1.00  0.00    -0.236 NA
ATOM     15  C   UNL     1     129.745 118.516 133.909  1.00  0.00     0.078 A 
ATOM     16  C   UNL     1     130.071 119.454 132.920  1.00  0.00     0.084 A 
ATOM     17  C   UNL     1     129.067 118.888 135.100  1.00  0.00     0.056 A 
ATOM     18  C   UNL     1     129.722 120.806 133.106  1.00  0.00     0.030 A 
ATOM     19  C   UNL     1     128.739 120.254 135.235  1.00  0.00     0.027 A 
ATOM     20  C   UNL     1     129.057 121.198 134.264  1.00  0.00     0.004 A 
BRANCH  17  21
ATOM     21  N   UNL     1     128.679 118.046 136.173  1.00  0.00    -0.370 N 
ATOM     22  C   UNL     1     127.869 116.897 135.743  1.00  0.00     0.123 C 
ATOM     23  C   UNL     1     128.120 118.781 137.316  1.00  0.00     0.123 C 
ATOM     24  C   UNL     1     127.803 115.902 136.891  1.00  0.00     0.098 C 
ATOM     25  C   UNL     1     128.061 117.839 138.508  1.00  0.00     0.098 C 
ATOM     26  C   UNL     1     127.282 116.595 138.133  1.00  0.00     0.251 C 
ATOM     27  F   UNL     1     127.304 115.722 139.175  1.00  0.00    -0.207 F 
ATOM     28  F   UNL     1     125.975 116.924 137.948  1.00  0.00    -0.207 F 
ENDBRANCH  17  21
ENDBRANCH   7  12
BRANCH   9  29
ATOM     29  N   UNL     1     129.932 114.865 131.065  1.00  0.00    -0.371 N 
ATOM     30  C   UNL     1     129.984 114.472 132.484  1.00  0.00     0.117 C 
ATOM     31  C   UNL     1     128.656 115.498 130.675  1.00  0.00     0.117 C 
ATOM     32  C   UNL     1     128.877 113.446 132.762  1.00  0.00     0.028 C 
ATOM     33  C   UNL     1     127.505 114.509 130.918  1.00  0.00     0.028 C 
ATOM     34  C   UNL     1     127.524 114.000 132.348  1.00  0.00    -0.026 C 
ATOM     35  C   UNL     1     126.677 114.705 133.385  1.00  0.00     0.008 C 
ATOM     36  C   UNL     1     126.278 113.341 132.894  1.00  0.00     0.008 C 
ENDBRANCH   9  29
ENDBRANCH   4   6
ENDBRANCH   1   4
BRANCH   1  37
ATOM     37  C   UNL     1     135.417 113.676 129.812  1.00  0.00     0.188 C 
BRANCH  37  38
ATOM     38  C   UNL     1     135.712 112.623 130.860  1.00  0.00     0.174 C 
BRANCH  38  39
ATOM     39  O   UNL     1     136.924 112.905 131.554  1.00  0.00    -0.395 OA
ATOM     40  H   UNL     1     137.541 113.329 130.923  1.00  0.00     0.210 HD
ENDBRANCH  38  39
ENDBRANCH  37  38
ENDBRANCH   1  37
TORSDOF 8
ENDMDL
MODEL 8
REMARK VINA RESULT:     -10.8      4.136      7.928
REMARK SMILES O=S(=O)(CCO)Nc1ccc(-c2nc3cccc(N4CCC(F)(F)CC4)c3s2)c(N2CCC3(CC2)CC3)c1
REMARK SMILES IDX 2 1 1 2 3 3 7 4 8 6 11 7 10 8 29 9 9 10 38 11 12 12 28 13
REMARK SMILES IDX 13 14 27 15 14 16 18 17 15 18 17 19 16 20 19 21 20 22 26 23
REMARK SMILES IDX 21 24 25 25 22 26 23 27 24 28 30 29 31 30 35 31 32 32 34 33
REMARK SMILES IDX 33 34 36 35 37 36 4 37 5 38 6 39
REMARK H PARENT 7 5 6 40
REMARK Flexibility Score: inf
ROOT
ATOM      1  S   UNL     1     127.968 117.926 138.841  1.00  0.00     0.234 S 
ATOM      2  O   UNL     1     127.915 118.816 139.983  1.00  0.00    -0.207 OA
ATOM      3  O   UNL     1     127.362 116.612 138.863  1.00  0.00    -0.207 OA
ENDROOT
BRANCH   1   4
ATOM      4  N   UNL     1     127.346 118.696 137.456  1.00  0.00    -0.283 N 
ATOM      5  H   UNL     1     127.177 119.674 137.707  1.00  0.00     0.180 HD
BRANCH   4   6
ATOM      6  C   UNL     1     128.171 118.597 136.287  1.00  0.00     0.051 A 
ATOM      7  C   UNL     1     129.699 118.443 133.932  1.00  0.00     0.034 A 
ATOM      8  C   UNL     1     129.828 119.533 134.820  1.00  0.00     0.015 A 
ATOM      9  C   UNL     1     128.782 117.409 134.232  1.00  0.00     0.049 A 
ATOM     10  C   UNL     1     129.064 119.615 135.985  1.00  0.00     0.027 A 
ATOM     11  C   UNL     1     128.024 117.517 135.418  1.00  0.00     0.053 A 
BRANCH   7  12
ATOM     12  C   UNL     1     130.560 118.443 132.745  1.00  0.00     0.126 A 
ATOM     13  S   UNL     1     130.982 116.953 132.009  1.00  0.00    -0.111 S 
ATOM     14  N   UNL     1     131.020 119.517 132.145  1.00  0.00    -0.236 NA
ATOM     15  C   UNL     1     131.915 117.783 130.810  1.00  0.00     0.078 A 
ATOM     16  C   UNL     1     131.800 119.157 131.058  1.00  0.00     0.084 A 
ATOM     17  C   UNL     1     132.687 117.278 129.731  1.00  0.00     0.056 A 
ATOM     18  C   UNL     1     132.464 120.070 130.215  1.00  0.00     0.030 A 
ATOM     19  C   UNL     1     133.331 118.235 128.919  1.00  0.00     0.027 A 
ATOM     20  C   UNL     1     133.226 119.603 129.150  1.00  0.00     0.004 A 
BRANCH  17  21
ATOM     21  N   UNL     1     132.885 115.920 129.371  1.00  0.00    -0.370 N 
ATOM     22  C   UNL     1     131.909 115.011 129.986  1.00  0.00     0.123 C 
ATOM     23  C   UNL     1     134.282 115.482 129.504  1.00  0.00     0.123 C 
ATOM     24  C   UNL     1     131.996 113.666 129.280  1.00  0.00     0.098 C 
ATOM     25  C   UNL     1     134.436 114.152 128.783  1.00  0.00     0.098 C 
ATOM     26  C   UNL     1     133.424 113.163 129.324  1.00  0.00     0.251 C 
ATOM     27  F   UNL     1     133.511 112.004 128.620  1.00  0.00    -0.207 F 
ATOM     28  F   UNL     1     133.748 112.847 130.607  1.00  0.00    -0.207 F 
ENDBRANCH  17  21
ENDBRANCH   7  12
BRANCH   9  29
ATOM     29  N   UNL     1     128.531 116.252 133.473  1.00  0.00    -0.371 N 
ATOM     30  C   UNL     1     128.742 114.963 134.155  1.00  0.00     0.117 C 
ATOM     31  C   UNL     1     127.273 116.311 132.702  1.00  0.00     0.117 C 
ATOM     32  C   UNL     1     128.811 113.844 133.106  1.00  0.00     0.028 C 
ATOM     33  C   UNL     1     127.289 115.218 131.621  1.00  0.00     0.028 C 
ATOM     34  C   UNL     1     127.568 113.858 132.234  1.00  0.00    -0.026 C 
ATOM     35  C   UNL     1     126.399 112.976 132.617  1.00  0.00     0.008 C 
ATOM     36  C   UNL     1     127.244 112.624 131.423  1.00  0.00     0.008 C 
ENDBRANCH   9  29
ENDBRANCH   4   6
ENDBRANCH   1   4
BRANCH   1  37
ATOM     37  C   UNL     1     129.680 117.740 138.383  1.00  0.00     0.188 C 
BRANCH  37  38
ATOM     38  C   UNL     1     130.119 116.292 138.446  1.00  0.00     0.174 C 
BRANCH  38  39
ATOM     39  O   UNL     1     129.451 115.502 137.466  1.00  0.00    -0.395 OA
ATOM     40  H   UNL     1     128.588 115.224 137.840  1.00  0.00     0.210 HD
ENDBRANCH  38  39
ENDBRANCH  37  38
ENDBRANCH   1  37
TORSDOF 8
ENDMDL
MODEL 9
REMARK VINA RESULT:     -10.6      1.103      1.844
REMARK SMILES O=S(=O)(CCO)Nc1ccc(-c2nc3cccc(N4CCC(F)(F)CC4)c3s2)c(N2CCC3(CC2)CC3)c1
REMARK SMILES IDX 2 1 1 2 3 3 7 4 8 6 11 7 10 8 29 9 9 10 38 11 12 12 28 13
REMARK SMILES IDX 13 14 27 15 14 16 18 17 15 18 17 19 16 20 19 21 20 22 26 23
REMARK SMILES IDX 21 24 25 25 22 26 23 27 24 28 30 29 31 30 35 31 32 32 34 33
REMARK SMILES IDX 33 34 36 35 37 36 4 37 5 38 6 39
REMARK H PARENT 7 5 6 40
REMARK Flexibility Score: inf
ROOT
ATOM      1  S   UNL     1     134.134 113.689 128.779  1.00  0.00     0.234 S 
ATOM      2  O   UNL     1     135.043 113.162 127.782  1.00  0.00    -0.207 OA
ATOM      3  O   UNL     1     134.560 113.976 130.132  1.00  0.00    -0.207 OA
ENDROOT
BRANCH   1   4
ATOM      4  N   UNL     1     133.396 115.117 128.218  1.00  0.00    -0.283 N 
ATOM      5  H   UNL     1     132.772 114.850 127.451  1.00  0.00     0.180 HD
BRANCH   4   6
ATOM      6  C   UNL     1     132.695 115.869 129.217  1.00  0.00     0.051 A 
ATOM      7  C   UNL     1     131.374 117.281 131.259  1.00  0.00     0.034 A 
ATOM      8  C   UNL     1     132.513 117.813 130.617  1.00  0.00     0.015 A 
ATOM      9  C   UNL     1     130.889 116.011 130.868  1.00  0.00     0.049 A 
ATOM     10  C   UNL     1     133.175 117.110 129.609  1.00  0.00     0.027 A 
ATOM     11  C   UNL     1     131.576 115.323 129.845  1.00  0.00     0.053 A 
BRANCH   7  12
ATOM     12  C   UNL     1     130.743 118.107 132.292  1.00  0.00     0.126 A 
ATOM     13  S   UNL     1     130.168 117.367 133.729  1.00  0.00    -0.111 S 
ATOM     14  N   UNL     1     130.608 119.412 132.239  1.00  0.00    -0.236 NA
ATOM     15  C   UNL     1     129.630 118.899 134.329  1.00  0.00     0.078 A 
ATOM     16  C   UNL     1     129.967 119.871 133.378  1.00  0.00     0.084 A 
ATOM     17  C   UNL     1     128.968 119.232 135.540  1.00  0.00     0.056 A 
ATOM     18  C   UNL     1     129.646 121.220 133.624  1.00  0.00     0.030 A 
ATOM     19  C   UNL     1     128.668 120.598 135.735  1.00  0.00     0.027 A 
ATOM     20  C   UNL     1     128.997 121.576 134.803  1.00  0.00     0.004 A 
BRANCH  17  21
ATOM     21  N   UNL     1     128.571 118.353 136.580  1.00  0.00    -0.370 N 
ATOM     22  C   UNL     1     127.747 117.232 136.106  1.00  0.00     0.123 C 
ATOM     23  C   UNL     1     128.023 119.049 137.752  1.00  0.00     0.123 C 
ATOM     24  C   UNL     1     127.670 116.193 137.214  1.00  0.00     0.098 C 
ATOM     25  C   UNL     1     127.954 118.061 138.906  1.00  0.00     0.098 C 
ATOM     26  C   UNL     1     127.160 116.843 138.483  1.00  0.00     0.251 C 
ATOM     27  F   UNL     1     127.173 115.929 139.490  1.00  0.00    -0.207 F 
ATOM     28  F   UNL     1     125.857 117.195 138.314  1.00  0.00    -0.207 F 
ENDBRANCH  17  21
ENDBRANCH   7  12
BRANCH   9  29
ATOM     29  N   UNL     1     129.769 115.335 131.386  1.00  0.00    -0.371 N 
ATOM     30  C   UNL     1     128.513 115.471 130.628  1.00  0.00     0.117 C 
ATOM     31  C   UNL     1     130.058 113.949 131.805  1.00  0.00     0.117 C 
ATOM     32  C   UNL     1     127.342 115.022 131.513  1.00  0.00     0.028 C 
ATOM     33  C   UNL     1     128.921 113.446 132.709  1.00  0.00     0.028 C 
ATOM     34  C   UNL     1     127.575 113.612 132.027  1.00  0.00    -0.026 C 
ATOM     35  C   UNL     1     127.004 112.447 131.247  1.00  0.00     0.008 C 
ATOM     36  C   UNL     1     126.395 112.837 132.566  1.00  0.00     0.008 C 
ENDBRANCH   9  29
ENDBRANCH   4   6
ENDBRANCH   1   4
BRANCH   1  37
ATOM     37  C   UNL     1     132.731 112.594 128.860  1.00  0.00     0.188 C 
BRANCH  37  38
ATOM     38  C   UNL     1     132.204 112.261 127.480  1.00  0.00     0.174 C 
BRANCH  38  39
ATOM     39  O   UNL     1     130.966 112.918 127.223  1.00  0.00    -0.395 OA
ATOM     40  H   UNL     1     130.840 113.604 127.912  1.00  0.00     0.210 HD
ENDBRANCH  38  39
ENDBRANCH  37  38
ENDBRANCH   1  37
TORSDOF 8
ENDMDL
