MODEL 1
REMARK VINA RESULT:     -11.8      0.000      0.000
REMARK SMILES Cc1cc(S(=O)(=O)N(C)C)ccc1OCc1cccc(CN(C)S(=O)(=O)c2ccc(C(C)(C)C)cc2)c1
REMARK SMILES IDX 16 1 37 2 20 3 19 4 18 5 17 6 15 7 14 8 13 9 4 10 3 11 11 12
REMARK SMILES IDX 2 13 12 14 1 15 5 16 6 17 7 18 8 19 9 20 10 21 21 22 22 23
REMARK SMILES IDX 23 24 24 25 25 26 26 27 27 28 28 29 36 30 29 31 35 32 30 33
REMARK SMILES IDX 31 34 32 35 33 36 34 37
REMARK H PARENT
REMARK Flexibility Score: inf
ROOT
ATOM      1  C   UNL     1     130.107 118.721 133.250  1.00  0.00    -0.010 A 
ATOM      2  C   UNL     1     129.243 118.476 134.327  1.00  0.00     0.012 A 
ATOM      3  C   UNL     1     129.264 119.287 135.474  1.00  0.00    -0.032 A 
ATOM      4  C   UNL     1     130.163 120.359 135.532  1.00  0.00     0.005 A 
ATOM      5  C   UNL     1     131.017 120.621 134.461  1.00  0.00     0.001 A 
ATOM      6  C   UNL     1     130.983 119.811 133.325  1.00  0.00     0.007 A 
ENDROOT
BRANCH   1   7
ATOM      7  C   UNL     1     130.033 117.858 132.009  1.00  0.00     0.265 C 
BRANCH   7   8
ATOM      8  O   UNL     1     131.228 118.015 131.244  1.00  0.00    -0.489 OA
BRANCH   8   9
ATOM      9  C   UNL     1     131.776 116.893 130.678  1.00  0.00     0.122 A 
ATOM     10  C   UNL     1     133.034 114.739 129.418  1.00  0.00     0.083 A 
ATOM     11  C   UNL     1     133.497 116.038 129.190  1.00  0.00     0.029 A 
ATOM     12  C   UNL     1     131.960 114.505 130.275  1.00  0.00     0.025 A 
ATOM     13  C   UNL     1     132.868 117.123 129.818  1.00  0.00    -0.008 A 
ATOM     14  C   UNL     1     131.332 115.585 130.903  1.00  0.00     0.048 A 
ATOM     15  C   UNL     1     133.372 118.520 129.572  1.00  0.00     0.048 C 
BRANCH  10  16
ATOM     16  S   UNL     1     133.846 113.384 128.608  1.00  0.00     0.242 S 
ATOM     17  O   UNL     1     133.325 112.165 129.190  1.00  0.00    -0.207 OA
ATOM     18  O   UNL     1     133.806 113.611 127.178  1.00  0.00    -0.207 OA
BRANCH  16  19
ATOM     19  N   UNL     1     135.476 113.565 129.105  1.00  0.00    -0.204 NA
ATOM     20  C   UNL     1     136.461 112.805 128.303  1.00  0.00     0.124 C 
ATOM     21  C   UNL     1     135.661 113.329 130.556  1.00  0.00     0.124 C 
ENDBRANCH  16  19
ENDBRANCH  10  16
ENDBRANCH   8   9
ENDBRANCH   7   8
ENDBRANCH   1   7
BRANCH   3  22
ATOM     22  C   UNL     1     128.330 118.991 136.626  1.00  0.00     0.137 C 
BRANCH  22  23
ATOM     23  N   UNL     1     128.860 117.953 137.542  1.00  0.00    -0.197 NA
ATOM     24  C   UNL     1     130.317 117.747 137.419  1.00  0.00     0.125 C 
BRANCH  23  25
ATOM     25  S   UNL     1     127.907 116.555 137.713  1.00  0.00     0.243 S 
ATOM     26  O   UNL     1     128.645 115.594 138.506  1.00  0.00    -0.207 OA
ATOM     27  O   UNL     1     126.572 116.963 138.096  1.00  0.00    -0.207 OA
BRANCH  25  28
ATOM     28  C   UNL     1     127.819 115.922 136.051  1.00  0.00     0.082 A 
ATOM     29  C   UNL     1     128.957 115.386 135.454  1.00  0.00     0.022 A 
ATOM     30  C   UNL     1     126.600 115.912 135.377  1.00  0.00     0.022 A 
ATOM     31  C   UNL     1     128.878 114.876 134.155  1.00  0.00     0.005 A 
ATOM     32  C   UNL     1     126.529 115.399 134.077  1.00  0.00     0.005 A 
ATOM     33  C   UNL     1     127.666 114.875 133.434  1.00  0.00    -0.043 A 
BRANCH  33  34
ATOM     34  C   UNL     1     127.620 114.300 132.006  1.00  0.00    -0.013 C 
ATOM     35  C   UNL     1     127.558 115.455 130.983  1.00  0.00     0.016 C 
ATOM     36  C   UNL     1     128.886 113.457 131.746  1.00  0.00     0.016 C 
ATOM     37  C   UNL     1     126.400 113.389 131.739  1.00  0.00     0.016 C 
ENDBRANCH  33  34
ENDBRANCH  25  28
ENDBRANCH  23  25
ENDBRANCH  22  23
ENDBRANCH   3  22
TORSDOF 10
ENDMDL
MODEL 2
REMARK VINA RESULT:     -11.5      0.710      1.130
REMARK SMILES Cc1cc(S(=O)(=O)N(C)C)ccc1OCc1cccc(CN(C)S(=O)(=O)c2ccc(C(C)(C)C)cc2)c1
REMARK SMILES IDX 16 1 37 2 20 3 19 4 18 5 17 6 15 7 14 8 13 9 4 10 3 11 11 12
REMARK SMILES IDX 2 13 12 14 1 15 5 16 6 17 7 18 8 19 9 20 10 21 21 22 22 23
REMARK SMILES IDX 23 24 24 25 25 26 26 27 27 28 28 29 36 30 29 31 35 32 30 33
REMARK SMILES IDX 31 34 32 35 33 36 34 37
REMARK H PARENT
REMARK Flexibility Score: inf
ROOT
ATOM      1  C   UNL     1     130.483 118.717 132.944  1.00  0.00    -0.010 A 
ATOM      2  C   UNL     1     130.292 118.337 134.281  1.00  0.00     0.012 A 
ATOM      3  C   UNL     1     130.539 119.235 135.333  1.00  0.00    -0.032 A 
ATOM      4  C   UNL     1     130.980 120.530 135.032  1.00  0.00     0.005 A 
ATOM      5  C   UNL     1     131.160 120.922 133.707  1.00  0.00     0.001 A 
ATOM      6  C   UNL     1     130.906 120.023 132.670  1.00  0.00     0.007 A 
ENDROOT
BRANCH   1   7
ATOM      7  C   UNL     1     130.167 117.744 131.829  1.00  0.00     0.265 C 
BRANCH   7   8
ATOM      8  O   UNL     1     131.156 117.850 130.805  1.00  0.00    -0.489 OA
BRANCH   8   9
ATOM      9  C   UNL     1     131.784 116.701 130.401  1.00  0.00     0.122 A 
ATOM     10  C   UNL     1     133.220 114.485 129.486  1.00  0.00     0.083 A 
ATOM     11  C   UNL     1     133.718 115.771 129.259  1.00  0.00     0.029 A 
ATOM     12  C   UNL     1     132.022 114.295 130.172  1.00  0.00     0.025 A 
ATOM     13  C   UNL     1     133.000 116.887 129.714  1.00  0.00    -0.008 A 
ATOM     14  C   UNL     1     131.305 115.405 130.628  1.00  0.00     0.048 A 
ATOM     15  C   UNL     1     133.541 118.270 129.470  1.00  0.00     0.048 C 
BRANCH  10  16
ATOM     16  S   UNL     1     134.146 113.089 128.897  1.00  0.00     0.242 S 
ATOM     17  O   UNL     1     133.695 111.933 129.641  1.00  0.00    -0.207 OA
ATOM     18  O   UNL     1     134.131 113.104 127.448  1.00  0.00    -0.207 OA
BRANCH  16  19
ATOM     19  N   UNL     1     135.745 113.459 129.391  1.00  0.00    -0.204 NA
ATOM     20  C   UNL     1     136.811 112.838 128.572  1.00  0.00     0.124 C 
ATOM     21  C   UNL     1     135.967 113.223 130.836  1.00  0.00     0.124 C 
ENDBRANCH  16  19
ENDBRANCH  10  16
ENDBRANCH   8   9
ENDBRANCH   7   8
ENDBRANCH   1   7
BRANCH   3  22
ATOM     22  C   UNL     1     130.337 118.794 136.766  1.00  0.00     0.137 C 
BRANCH  22  23
ATOM     23  N   UNL     1     128.961 118.307 137.027  1.00  0.00    -0.197 NA
ATOM     24  C   UNL     1     128.179 119.198 137.908  1.00  0.00     0.125 C 
BRANCH  23  25
ATOM     25  S   UNL     1     128.803 116.637 137.302  1.00  0.00     0.243 S 
ATOM     26  O   UNL     1     130.100 116.112 137.674  1.00  0.00    -0.207 OA
ATOM     27  O   UNL     1     127.648 116.426 138.147  1.00  0.00    -0.207 OA
BRANCH  25  28
ATOM     28  C   UNL     1     128.411 115.998 135.687  1.00  0.00     0.082 A 
ATOM     29  C   UNL     1     129.387 115.329 134.952  1.00  0.00     0.022 A 
ATOM     30  C   UNL     1     127.115 116.120 135.190  1.00  0.00     0.022 A 
ATOM     31  C   UNL     1     129.068 114.816 133.691  1.00  0.00     0.005 A 
ATOM     32  C   UNL     1     126.804 115.602 133.926  1.00  0.00     0.005 A 
ATOM     33  C   UNL     1     127.774 114.945 133.147  1.00  0.00    -0.043 A 
BRANCH  33  34
ATOM     34  C   UNL     1     127.462 114.362 131.756  1.00  0.00    -0.013 C 
ATOM     35  C   UNL     1     128.475 113.244 131.424  1.00  0.00     0.016 C 
ATOM     36  C   UNL     1     126.035 113.775 131.747  1.00  0.00     0.016 C 
ATOM     37  C   UNL     1     127.538 115.399 130.612  1.00  0.00     0.016 C 
ENDBRANCH  33  34
ENDBRANCH  25  28
ENDBRANCH  23  25
ENDBRANCH  22  23
ENDBRANCH   3  22
TORSDOF 10
ENDMDL
MODEL 3
REMARK VINA RESULT:     -11.4      1.325      1.909
REMARK SMILES Cc1cc(S(=O)(=O)N(C)C)ccc1OCc1cccc(CN(C)S(=O)(=O)c2ccc(C(C)(C)C)cc2)c1
REMARK SMILES IDX 16 1 37 2 20 3 19 4 18 5 17 6 15 7 14 8 13 9 4 10 3 11 11 12
REMARK SMILES IDX 2 13 12 14 1 15 5 16 6 17 7 18 8 19 9 20 10 21 21 22 22 23
REMARK SMILES IDX 23 24 24 25 25 26 26 27 27 28 28 29 36 30 29 31 35 32 30 33
REMARK SMILES IDX 31 34 32 35 33 36 34 37
REMARK H PARENT
REMARK Flexibility Score: inf
ROOT
ATOM      1  C   UNL     1     130.541 120.055 133.847  1.00  0.00    -0.010 A 
ATOM      2  C   UNL     1     130.580 119.013 134.784  1.00  0.00     0.012 A 
ATOM      3  C   UNL     1     129.647 118.944 135.832  1.00  0.00    -0.032 A 
ATOM      4  C   UNL     1     128.662 119.934 135.933  1.00  0.00     0.005 A 
ATOM      5  C   UNL     1     128.605 120.967 134.998  1.00  0.00     0.001 A 
ATOM      6  C   UNL     1     129.534 121.023 133.958  1.00  0.00     0.007 A 
ENDROOT
BRANCH   1   7
ATOM      7  C   UNL     1     131.530 120.082 132.703  1.00  0.00     0.265 C 
BRANCH   7   8
ATOM      8  O   UNL     1     130.928 119.526 131.533  1.00  0.00    -0.489 OA
BRANCH   8   9
ATOM      9  C   UNL     1     131.491 118.398 130.999  1.00  0.00     0.122 A 
ATOM     10  C   UNL     1     132.768 116.228 129.785  1.00  0.00     0.083 A 
ATOM     11  C   UNL     1     133.155 117.529 129.454  1.00  0.00     0.029 A 
ATOM     12  C   UNL     1     131.760 115.999 130.721  1.00  0.00     0.025 A 
ATOM     13  C   UNL     1     132.516 118.622 130.058  1.00  0.00    -0.008 A 
ATOM     14  C   UNL     1     131.123 117.087 131.326  1.00  0.00     0.048 A 
ATOM     15  C   UNL     1     132.939 120.022 129.701  1.00  0.00     0.048 C 
BRANCH  10  16
ATOM     16  S   UNL     1     133.590 114.862 129.003  1.00  0.00     0.242 S 
ATOM     17  O   UNL     1     133.296 114.940 127.588  1.00  0.00    -0.207 OA
ATOM     18  O   UNL     1     134.954 114.807 129.486  1.00  0.00    -0.207 OA
BRANCH  16  19
ATOM     19  N   UNL     1     132.768 113.504 129.650  1.00  0.00    -0.204 NA
ATOM     20  C   UNL     1     133.644 112.467 130.241  1.00  0.00     0.124 C 
ATOM     21  C   UNL     1     131.799 112.914 128.698  1.00  0.00     0.124 C 
ENDBRANCH  16  19
ENDBRANCH  10  16
ENDBRANCH   8   9
ENDBRANCH   7   8
ENDBRANCH   1   7
BRANCH   3  22
ATOM     22  C   UNL     1     129.722 117.815 136.837  1.00  0.00     0.137 C 
BRANCH  22  23
ATOM     23  N   UNL     1     128.500 117.707 137.670  1.00  0.00    -0.197 NA
ATOM     24  C   UNL     1     128.619 118.374 138.981  1.00  0.00     0.125 C 
BRANCH  23  25
ATOM     25  S   UNL     1     127.722 116.195 137.655  1.00  0.00     0.243 S 
ATOM     26  O   UNL     1     128.548 115.250 138.378  1.00  0.00    -0.207 OA
ATOM     27  O   UNL     1     126.336 116.397 138.019  1.00  0.00    -0.207 OA
BRANCH  25  28
ATOM     28  C   UNL     1     127.764 115.736 135.935  1.00  0.00     0.082 A 
ATOM     29  C   UNL     1     128.957 115.296 135.366  1.00  0.00     0.022 A 
ATOM     30  C   UNL     1     126.592 115.764 135.182  1.00  0.00     0.022 A 
ATOM     31  C   UNL     1     128.980 114.923 134.019  1.00  0.00     0.005 A 
ATOM     32  C   UNL     1     126.624 115.388 133.834  1.00  0.00     0.005 A 
ATOM     33  C   UNL     1     127.818 114.965 133.221  1.00  0.00    -0.043 A 
BRANCH  33  34
ATOM     34  C   UNL     1     127.885 114.541 131.741  1.00  0.00    -0.013 C 
ATOM     35  C   UNL     1     126.763 113.522 131.443  1.00  0.00     0.016 C 
ATOM     36  C   UNL     1     127.702 115.778 130.838  1.00  0.00     0.016 C 
ATOM     37  C   UNL     1     129.222 113.876 131.342  1.00  0.00     0.016 C 
ENDBRANCH  33  34
ENDBRANCH  25  28
ENDBRANCH  23  25
ENDBRANCH  22  23
ENDBRANCH   3  22
TORSDOF 10
ENDMDL
MODEL 4
REMARK VINA RESULT:     -11.3      1.465      8.044
REMARK SMILES Cc1cc(S(=O)(=O)N(C)C)ccc1OCc1cccc(CN(C)S(=O)(=O)c2ccc(C(C)(C)C)cc2)c1
REMARK SMILES IDX 16 1 37 2 20 3 19 4 18 5 17 6 15 7 14 8 13 9 4 10 3 11 11 12
REMARK SMILES IDX 2 13 12 14 1 15 5 16 6 17 7 18 8 19 9 20 10 21 21 22 22 23
REMARK SMILES IDX 23 24 24 25 25 26 26 27 27 28 28 29 36 30 29 31 35 32 30 33
REMARK SMILES IDX 31 34 32 35 33 36 34 37
REMARK H PARENT
REMARK Flexibility Score: inf
ROOT
ATOM      1  C   UNL     1     131.821 118.280 130.764  1.00  0.00    -0.010 A 
ATOM      2  C   UNL     1     132.350 117.203 130.038  1.00  0.00     0.012 A 
ATOM      3  C   UNL     1     133.588 117.307 129.383  1.00  0.00    -0.032 A 
ATOM      4  C   UNL     1     134.303 118.508 129.467  1.00  0.00     0.005 A 
ATOM      5  C   UNL     1     133.794 119.581 130.197  1.00  0.00     0.001 A 
ATOM      6  C   UNL     1     132.564 119.465 130.847  1.00  0.00     0.007 A 
ENDROOT
BRANCH   1   7
ATOM      7  C   UNL     1     130.506 118.127 131.495  1.00  0.00     0.265 C 
BRANCH   7   8
ATOM      8  O   UNL     1     130.384 119.149 132.484  1.00  0.00    -0.489 OA
BRANCH   8   9
ATOM      9  C   UNL     1     130.019 118.773 133.750  1.00  0.00     0.122 A 
ATOM     10  C   UNL     1     129.291 118.220 136.392  1.00  0.00     0.083 A 
ATOM     11  C   UNL     1     129.531 119.540 136.005  1.00  0.00     0.029 A 
ATOM     12  C   UNL     1     129.399 117.177 135.473  1.00  0.00     0.025 A 
ATOM     13  C   UNL     1     129.900 119.825 134.681  1.00  0.00    -0.008 A 
ATOM     14  C   UNL     1     129.764 117.457 134.153  1.00  0.00     0.048 A 
ATOM     15  C   UNL     1     130.155 121.249 134.269  1.00  0.00     0.048 C 
BRANCH  10  16
ATOM     16  S   UNL     1     128.830 117.888 138.074  1.00  0.00     0.242 S 
ATOM     17  O   UNL     1     129.929 117.170 138.684  1.00  0.00    -0.207 OA
ATOM     18  O   UNL     1     128.310 119.107 138.659  1.00  0.00    -0.207 OA
BRANCH  16  19
ATOM     19  N   UNL     1     127.511 116.806 137.899  1.00  0.00    -0.204 NA
ATOM     20  C   UNL     1     126.461 117.250 136.954  1.00  0.00     0.124 C 
ATOM     21  C   UNL     1     126.931 116.397 139.199  1.00  0.00     0.124 C 
ENDBRANCH  16  19
ENDBRANCH  10  16
ENDBRANCH   8   9
ENDBRANCH   7   8
ENDBRANCH   1   7
BRANCH   3  22
ATOM     22  C   UNL     1     134.128 116.133 128.596  1.00  0.00     0.137 C 
BRANCH  22  23
ATOM     23  N   UNL     1     134.265 114.906 129.417  1.00  0.00    -0.197 NA
ATOM     24  C   UNL     1     135.658 114.616 129.815  1.00  0.00     0.125 C 
BRANCH  23  25
ATOM     25  S   UNL     1     133.321 113.578 128.933  1.00  0.00     0.243 S 
ATOM     26  O   UNL     1     133.072 113.691 127.511  1.00  0.00    -0.207 OA
ATOM     27  O   UNL     1     133.910 112.379 129.489  1.00  0.00    -0.207 OA
BRANCH  25  28
ATOM     28  C   UNL     1     131.775 113.856 129.770  1.00  0.00     0.082 A 
ATOM     29  C   UNL     1     130.580 113.790 129.057  1.00  0.00     0.022 A 
ATOM     30  C   UNL     1     131.762 114.080 131.146  1.00  0.00     0.022 A 
ATOM     31  C   UNL     1     129.368 113.994 129.723  1.00  0.00     0.005 A 
ATOM     32  C   UNL     1     130.544 114.282 131.805  1.00  0.00     0.005 A 
ATOM     33  C   UNL     1     129.322 114.250 131.110  1.00  0.00    -0.043 A 
BRANCH  33  34
ATOM     34  C   UNL     1     127.965 114.464 131.807  1.00  0.00    -0.013 C 
ATOM     35  C   UNL     1     126.930 113.464 131.247  1.00  0.00     0.016 C 
ATOM     36  C   UNL     1     128.122 114.239 133.325  1.00  0.00     0.016 C 
ATOM     37  C   UNL     1     127.379 115.882 131.612  1.00  0.00     0.016 C 
ENDBRANCH  33  34
ENDBRANCH  25  28
ENDBRANCH  23  25
ENDBRANCH  22  23
ENDBRANCH   3  22
TORSDOF 10
ENDMDL
MODEL 5
REMARK VINA RESULT:     -11.3      0.996      1.631
REMARK SMILES Cc1cc(S(=O)(=O)N(C)C)ccc1OCc1cccc(CN(C)S(=O)(=O)c2ccc(C(C)(C)C)cc2)c1
REMARK SMILES IDX 16 1 37 2 20 3 19 4 18 5 17 6 15 7 14 8 13 9 4 10 3 11 11 12
REMARK SMILES IDX 2 13 12 14 1 15 5 16 6 17 7 18 8 19 9 20 10 21 21 22 22 23
REMARK SMILES IDX 23 24 24 25 25 26 26 27 27 28 28 29 36 30 29 31 35 32 30 33
REMARK SMILES IDX 31 34 32 35 33 36 34 37
REMARK H PARENT
REMARK Flexibility Score: inf
ROOT
ATOM      1  C   UNL     1     130.938 119.715 133.592  1.00  0.00    -0.010 A 
ATOM      2  C   UNL     1     130.936 118.853 134.698  1.00  0.00     0.012 A 
ATOM      3  C   UNL     1     129.880 118.862 135.623  1.00  0.00    -0.032 A 
ATOM      4  C   UNL     1     128.812 119.746 135.428  1.00  0.00     0.005 A 
ATOM      5  C   UNL     1     128.796 120.598 134.324  1.00  0.00     0.001 A 
ATOM      6  C   UNL     1     129.849 120.577 133.408  1.00  0.00     0.007 A 
ENDROOT
BRANCH   1   7
ATOM      7  C   UNL     1     132.067 119.654 132.587  1.00  0.00     0.265 C 
BRANCH   7   8
ATOM      8  O   UNL     1     131.549 119.307 131.302  1.00  0.00    -0.489 OA
BRANCH   8   9
ATOM      9  C   UNL     1     131.815 118.051 130.824  1.00  0.00     0.122 A 
ATOM     10  C   UNL     1     132.513 115.580 129.720  1.00  0.00     0.083 A 
ATOM     11  C   UNL     1     133.216 116.727 129.344  1.00  0.00     0.029 A 
ATOM     12  C   UNL     1     131.475 115.652 130.648  1.00  0.00     0.025 A 
ATOM     13  C   UNL     1     132.869 117.971 129.892  1.00  0.00    -0.008 A 
ATOM     14  C   UNL     1     131.127 116.890 131.197  1.00  0.00     0.048 A 
ATOM     15  C   UNL     1     133.631 119.203 129.485  1.00  0.00     0.048 C 
BRANCH  10  16
ATOM     16  S   UNL     1     132.971 114.019 129.009  1.00  0.00     0.242 S 
ATOM     17  O   UNL     1     131.865 113.111 129.225  1.00  0.00    -0.207 OA
ATOM     18  O   UNL     1     133.501 114.255 127.682  1.00  0.00    -0.207 OA
BRANCH  16  19
ATOM     19  N   UNL     1     134.279 113.520 129.997  1.00  0.00    -0.204 NA
ATOM     20  C   UNL     1     135.618 113.673 129.384  1.00  0.00     0.124 C 
ATOM     21  C   UNL     1     134.090 112.161 130.553  1.00  0.00     0.124 C 
ENDBRANCH  16  19
ENDBRANCH  10  16
ENDBRANCH   8   9
ENDBRANCH   7   8
ENDBRANCH   1   7
BRANCH   3  22
ATOM     22  C   UNL     1     129.911 117.930 136.815  1.00  0.00     0.137 C 
BRANCH  22  23
ATOM     23  N   UNL     1     128.592 117.806 137.481  1.00  0.00    -0.197 NA
ATOM     24  C   UNL     1     128.450 118.668 138.672  1.00  0.00     0.125 C 
BRANCH  23  25
ATOM     25  S   UNL     1     127.967 116.230 137.606  1.00  0.00     0.243 S 
ATOM     26  O   UNL     1     128.941 115.407 138.292  1.00  0.00    -0.207 OA
ATOM     27  O   UNL     1     126.604 116.321 138.084  1.00  0.00    -0.207 OA
BRANCH  25  28
ATOM     28  C   UNL     1     127.906 115.686 135.911  1.00  0.00     0.082 A 
ATOM     29  C   UNL     1     126.713 115.773 135.199  1.00  0.00     0.022 A 
ATOM     30  C   UNL     1     129.066 115.229 135.289  1.00  0.00     0.022 A 
ATOM     31  C   UNL     1     126.675 115.359 133.864  1.00  0.00     0.005 A 
ATOM     32  C   UNL     1     129.021 114.817 133.951  1.00  0.00     0.005 A 
ATOM     33  C   UNL     1     127.825 114.866 133.212  1.00  0.00    -0.043 A 
BRANCH  33  34
ATOM     34  C   UNL     1     127.743 114.424 131.739  1.00  0.00    -0.013 C 
ATOM     35  C   UNL     1     129.022 113.646 131.359  1.00  0.00     0.016 C 
ATOM     36  C   UNL     1     126.514 113.512 131.539  1.00  0.00     0.016 C 
ATOM     37  C   UNL     1     127.610 115.596 130.740  1.00  0.00     0.016 C 
ENDBRANCH  33  34
ENDBRANCH  25  28
ENDBRANCH  23  25
ENDBRANCH  22  23
ENDBRANCH   3  22
TORSDOF 10
ENDMDL
MODEL 6
REMARK VINA RESULT:     -11.2      1.144      1.405
REMARK SMILES Cc1cc(S(=O)(=O)N(C)C)ccc1OCc1cccc(CN(C)S(=O)(=O)c2ccc(C(C)(C)C)cc2)c1
REMARK SMILES IDX 16 1 37 2 20 3 19 4 18 5 17 6 15 7 14 8 13 9 4 10 3 11 11 12
REMARK SMILES IDX 2 13 12 14 1 15 5 16 6 17 7 18 8 19 9 20 10 21 21 22 22 23
REMARK SMILES IDX 23 24 24 25 25 26 26 27 27 28 28 29 36 30 29 31 35 32 30 33
REMARK SMILES IDX 31 34 32 35 33 36 34 37
REMARK H PARENT
REMARK Flexibility Score: inf
ROOT
ATOM      1  C   UNL     1     129.883 119.384 133.765  1.00  0.00    -0.010 A 
ATOM      2  C   UNL     1     129.016 118.917 134.764  1.00  0.00     0.012 A 
ATOM      3  C   UNL     1     129.060 119.442 136.067  1.00  0.00    -0.032 A 
ATOM      4  C   UNL     1     129.984 120.452 136.362  1.00  0.00     0.005 A 
ATOM      5  C   UNL     1     130.841 120.934 135.373  1.00  0.00     0.001 A 
ATOM      6  C   UNL     1     130.785 120.407 134.082  1.00  0.00     0.007 A 
ENDROOT
BRANCH   1   7
ATOM      7  C   UNL     1     129.785 118.831 132.360  1.00  0.00     0.265 C 
BRANCH   7   8
ATOM      8  O   UNL     1     131.016 119.052 131.671  1.00  0.00    -0.489 OA
BRANCH   8   9
ATOM      9  C   UNL     1     131.595 117.984 131.039  1.00  0.00     0.122 A 
ATOM     10  C   UNL     1     132.906 115.948 129.643  1.00  0.00     0.083 A 
ATOM     11  C   UNL     1     133.299 117.275 129.457  1.00  0.00     0.029 A 
ATOM     12  C   UNL     1     131.876 115.626 130.525  1.00  0.00     0.025 A 
ATOM     13  C   UNL     1     132.643 118.302 130.152  1.00  0.00    -0.008 A 
ATOM     14  C   UNL     1     131.221 116.647 131.221  1.00  0.00     0.048 A 
ATOM     15  C   UNL     1     133.072 119.730 129.951  1.00  0.00     0.048 C 
BRANCH  10  16
ATOM     16  S   UNL     1     133.751 114.668 128.748  1.00  0.00     0.242 S 
ATOM     17  O   UNL     1     133.464 114.869 127.343  1.00  0.00    -0.207 OA
ATOM     18  O   UNL     1     135.113 114.588 129.233  1.00  0.00    -0.207 OA
BRANCH  16  19
ATOM     19  N   UNL     1     132.944 113.247 129.265  1.00  0.00    -0.204 NA
ATOM     20  C   UNL     1     133.717 112.394 130.197  1.00  0.00     0.124 C 
ATOM     21  C   UNL     1     132.395 112.458 128.139  1.00  0.00     0.124 C 
ENDBRANCH  16  19
ENDBRANCH  10  16
ENDBRANCH   8   9
ENDBRANCH   7   8
ENDBRANCH   1   7
BRANCH   3  22
ATOM     22  C   UNL     1     128.122 118.910 137.128  1.00  0.00     0.137 C 
BRANCH  22  23
ATOM     23  N   UNL     1     128.695 117.767 137.880  1.00  0.00    -0.197 NA
ATOM     24  C   UNL     1     130.150 117.606 137.686  1.00  0.00     0.125 C 
BRANCH  23  25
ATOM     25  S   UNL     1     127.768 116.343 137.889  1.00  0.00     0.243 S 
ATOM     26  O   UNL     1     128.490 115.333 138.635  1.00  0.00    -0.207 OA
ATOM     27  O   UNL     1     126.408 116.692 138.240  1.00  0.00    -0.207 OA
BRANCH  25  28
ATOM     28  C   UNL     1     127.771 115.849 136.179  1.00  0.00     0.082 A 
ATOM     29  C   UNL     1     128.954 115.417 135.585  1.00  0.00     0.022 A 
ATOM     30  C   UNL     1     126.578 115.840 135.458  1.00  0.00     0.022 A 
ATOM     31  C   UNL     1     128.947 115.016 134.246  1.00  0.00     0.005 A 
ATOM     32  C   UNL     1     126.579 115.435 134.117  1.00  0.00     0.005 A 
ATOM     33  C   UNL     1     127.763 115.020 133.480  1.00  0.00    -0.043 A 
BRANCH  33  34
ATOM     34  C   UNL     1     127.796 114.566 132.009  1.00  0.00    -0.013 C 
ATOM     35  C   UNL     1     127.753 115.802 131.083  1.00  0.00     0.016 C 
ATOM     36  C   UNL     1     129.094 113.774 131.741  1.00  0.00     0.016 C 
ATOM     37  C   UNL     1     126.613 113.656 131.609  1.00  0.00     0.016 C 
ENDBRANCH  33  34
ENDBRANCH  25  28
ENDBRANCH  23  25
ENDBRANCH  22  23
ENDBRANCH   3  22
TORSDOF 10
ENDMDL
MODEL 7
REMARK VINA RESULT:     -11.2      1.178      1.463
REMARK SMILES Cc1cc(S(=O)(=O)N(C)C)ccc1OCc1cccc(CN(C)S(=O)(=O)c2ccc(C(C)(C)C)cc2)c1
REMARK SMILES IDX 16 1 37 2 20 3 19 4 18 5 17 6 15 7 14 8 13 9 4 10 3 11 11 12
REMARK SMILES IDX 2 13 12 14 1 15 5 16 6 17 7 18 8 19 9 20 10 21 21 22 22 23
REMARK SMILES IDX 23 24 24 25 25 26 26 27 27 28 28 29 36 30 29 31 35 32 30 33
REMARK SMILES IDX 31 34 32 35 33 36 34 37
REMARK H PARENT
REMARK Flexibility Score: inf
ROOT
ATOM      1  C   UNL     1     130.563 119.941 133.965  1.00  0.00    -0.010 A 
ATOM      2  C   UNL     1     130.682 119.336 135.225  1.00  0.00     0.012 A 
ATOM      3  C   UNL     1     129.802 119.658 136.271  1.00  0.00    -0.032 A 
ATOM      4  C   UNL     1     128.789 120.597 136.043  1.00  0.00     0.005 A 
ATOM      5  C   UNL     1     128.652 121.195 134.790  1.00  0.00     0.001 A 
ATOM      6  C   UNL     1     129.529 120.863 133.757  1.00  0.00     0.007 A 
ENDROOT
BRANCH   1   7
ATOM      7  C   UNL     1     131.497 119.544 132.843  1.00  0.00     0.265 C 
BRANCH   7   8
ATOM      8  O   UNL     1     130.750 118.934 131.790  1.00  0.00    -0.489 OA
BRANCH   8   9
ATOM      9  C   UNL     1     131.247 117.783 131.237  1.00  0.00     0.122 A 
ATOM     10  C   UNL     1     132.382 115.563 129.974  1.00  0.00     0.083 A 
ATOM     11  C   UNL     1     132.770 116.848 129.589  1.00  0.00     0.029 A 
ATOM     12  C   UNL     1     131.444 115.375 130.988  1.00  0.00     0.025 A 
ATOM     13  C   UNL     1     132.203 117.967 130.217  1.00  0.00    -0.008 A 
ATOM     14  C   UNL     1     130.877 116.487 131.617  1.00  0.00     0.048 A 
ATOM     15  C   UNL     1     132.626 119.350 129.801  1.00  0.00     0.048 C 
BRANCH  10  16
ATOM     16  S   UNL     1     133.113 114.165 129.160  1.00  0.00     0.242 S 
ATOM     17  O   UNL     1     132.300 113.011 129.480  1.00  0.00    -0.207 OA
ATOM     18  O   UNL     1     133.397 114.527 127.787  1.00  0.00    -0.207 OA
BRANCH  16  19
ATOM     19  N   UNL     1     134.618 114.002 129.963  1.00  0.00    -0.204 NA
ATOM     20  C   UNL     1     135.644 114.997 129.575  1.00  0.00     0.124 C 
ATOM     21  C   UNL     1     135.153 112.622 129.904  1.00  0.00     0.124 C 
ENDBRANCH  16  19
ENDBRANCH  10  16
ENDBRANCH   8   9
ENDBRANCH   7   8
ENDBRANCH   1   7
BRANCH   3  22
ATOM     22  C   UNL     1     129.963 118.999 137.623  1.00  0.00     0.137 C 
BRANCH  22  23
ATOM     23  N   UNL     1     128.841 118.086 137.954  1.00  0.00    -0.197 NA
ATOM     24  C   UNL     1     128.018 118.552 139.087  1.00  0.00     0.125 C 
BRANCH  23  25
ATOM     25  S   UNL     1     129.196 116.425 137.904  1.00  0.00     0.243 S 
ATOM     26  O   UNL     1     130.635 116.265 137.935  1.00  0.00    -0.207 OA
ATOM     27  O   UNL     1     128.355 115.754 138.873  1.00  0.00    -0.207 OA
BRANCH  25  28
ATOM     28  C   UNL     1     128.639 115.942 136.283  1.00  0.00     0.082 A 
ATOM     29  C   UNL     1     129.501 115.255 135.432  1.00  0.00     0.022 A 
ATOM     30  C   UNL     1     127.326 116.202 135.896  1.00  0.00     0.022 A 
ATOM     31  C   UNL     1     129.052 114.865 134.166  1.00  0.00     0.005 A 
ATOM     32  C   UNL     1     126.884 115.807 134.628  1.00  0.00     0.005 A 
ATOM     33  C   UNL     1     127.738 115.136 133.733  1.00  0.00    -0.043 A 
BRANCH  33  34
ATOM     34  C   UNL     1     127.281 114.685 132.333  1.00  0.00    -0.013 C 
ATOM     35  C   UNL     1     127.225 115.905 131.388  1.00  0.00     0.016 C 
ATOM     36  C   UNL     1     128.279 113.651 131.770  1.00  0.00     0.016 C 
ATOM     37  C   UNL     1     125.882 114.029 132.312  1.00  0.00     0.016 C 
ENDBRANCH  33  34
ENDBRANCH  25  28
ENDBRANCH  23  25
ENDBRANCH  22  23
ENDBRANCH   3  22
TORSDOF 10
ENDMDL
MODEL 8
REMARK VINA RESULT:     -11.1      1.438      8.080
REMARK SMILES Cc1cc(S(=O)(=O)N(C)C)ccc1OCc1cccc(CN(C)S(=O)(=O)c2ccc(C(C)(C)C)cc2)c1
REMARK SMILES IDX 16 1 37 2 20 3 19 4 18 5 17 6 15 7 14 8 13 9 4 10 3 11 11 12
REMARK SMILES IDX 2 13 12 14 1 15 5 16 6 17 7 18 8 19 9 20 10 21 21 22 22 23
REMARK SMILES IDX 23 24 24 25 25 26 26 27 27 28 28 29 36 30 29 31 35 32 30 33
REMARK SMILES IDX 31 34 32 35 33 36 34 37
REMARK H PARENT
REMARK Flexibility Score: inf
ROOT
ATOM      1  C   UNL     1     131.636 118.145 130.944  1.00  0.00    -0.010 A 
ATOM      2  C   UNL     1     132.218 117.134 130.166  1.00  0.00     0.012 A 
ATOM      3  C   UNL     1     133.426 117.349 129.482  1.00  0.00    -0.032 A 
ATOM      4  C   UNL     1     134.056 118.596 129.589  1.00  0.00     0.005 A 
ATOM      5  C   UNL     1     133.494 119.603 130.371  1.00  0.00     0.001 A 
ATOM      6  C   UNL     1     132.295 119.377 131.050  1.00  0.00     0.007 A 
ENDROOT
BRANCH   1   7
ATOM      7  C   UNL     1     130.357 117.873 131.705  1.00  0.00     0.265 C 
BRANCH   7   8
ATOM      8  O   UNL     1     130.115 118.932 132.632  1.00  0.00    -0.489 OA
BRANCH   8   9
ATOM      9  C   UNL     1     129.737 118.593 133.904  1.00  0.00     0.122 A 
ATOM     10  C   UNL     1     128.945 118.118 136.542  1.00  0.00     0.083 A 
ATOM     11  C   UNL     1     129.007 119.430 136.066  1.00  0.00     0.029 A 
ATOM     12  C   UNL     1     129.263 117.043 135.714  1.00  0.00     0.025 A 
ATOM     13  C   UNL     1     129.406 119.675 134.744  1.00  0.00    -0.008 A 
ATOM     14  C   UNL     1     129.660 117.284 134.395  1.00  0.00     0.048 A 
ATOM     15  C   UNL     1     129.468 121.090 134.235  1.00  0.00     0.048 C 
BRANCH  10  16
ATOM     16  S   UNL     1     128.441 117.836 138.221  1.00  0.00     0.242 S 
ATOM     17  O   UNL     1     129.370 116.884 138.792  1.00  0.00    -0.207 OA
ATOM     18  O   UNL     1     128.196 119.117 138.850  1.00  0.00    -0.207 OA
BRANCH  16  19
ATOM     19  N   UNL     1     126.923 117.063 138.037  1.00  0.00    -0.204 NA
ATOM     20  C   UNL     1     126.849 115.692 138.593  1.00  0.00     0.124 C 
ATOM     21  C   UNL     1     126.423 117.109 136.644  1.00  0.00     0.124 C 
ENDBRANCH  16  19
ENDBRANCH  10  16
ENDBRANCH   8   9
ENDBRANCH   7   8
ENDBRANCH   1   7
BRANCH   3  22
ATOM     22  C   UNL     1     134.024 116.245 128.639  1.00  0.00     0.137 C 
BRANCH  22  23
ATOM     23  N   UNL     1     134.242 114.993 129.404  1.00  0.00    -0.197 NA
ATOM     24  C   UNL     1     135.653 114.769 129.777  1.00  0.00     0.125 C 
BRANCH  23  25
ATOM     25  S   UNL     1     133.373 113.634 128.868  1.00  0.00     0.243 S 
ATOM     26  O   UNL     1     133.120 113.784 127.450  1.00  0.00    -0.207 OA
ATOM     27  O   UNL     1     134.025 112.449 129.383  1.00  0.00    -0.207 OA
BRANCH  25  28
ATOM     28  C   UNL     1     131.812 113.797 129.710  1.00  0.00     0.082 A 
ATOM     29  C   UNL     1     131.785 113.955 131.093  1.00  0.00     0.022 A 
ATOM     30  C   UNL     1     130.629 113.824 128.974  1.00  0.00     0.022 A 
ATOM     31  C   UNL     1     130.557 114.098 131.746  1.00  0.00     0.005 A 
ATOM     32  C   UNL     1     129.403 113.969 129.636  1.00  0.00     0.005 A 
ATOM     33  C   UNL     1     129.339 114.102 131.035  1.00  0.00    -0.043 A 
BRANCH  33  34
ATOM     34  C   UNL     1     128.007 114.267 131.791  1.00  0.00    -0.013 C 
ATOM     35  C   UNL     1     128.247 114.093 133.307  1.00  0.00     0.016 C 
ATOM     36  C   UNL     1     127.431 115.674 131.525  1.00  0.00     0.016 C 
ATOM     37  C   UNL     1     126.925 113.243 131.381  1.00  0.00     0.016 C 
ENDBRANCH  33  34
ENDBRANCH  25  28
ENDBRANCH  23  25
ENDBRANCH  22  23
ENDBRANCH   3  22
TORSDOF 10
ENDMDL
MODEL 9
REMARK VINA RESULT:     -11.1      1.325      2.217
REMARK SMILES Cc1cc(S(=O)(=O)N(C)C)ccc1OCc1cccc(CN(C)S(=O)(=O)c2ccc(C(C)(C)C)cc2)c1
REMARK SMILES IDX 16 1 37 2 20 3 19 4 18 5 17 6 15 7 14 8 13 9 4 10 3 11 11 12
REMARK SMILES IDX 2 13 12 14 1 15 5 16 6 17 7 18 8 19 9 20 10 21 21 22 22 23
REMARK SMILES IDX 23 24 24 25 25 26 26 27 27 28 28 29 36 30 29 31 35 32 30 33
REMARK SMILES IDX 31 34 32 35 33 36 34 37
REMARK H PARENT
REMARK Flexibility Score: inf
ROOT
ATOM      1  C   UNL     1     130.609 120.235 133.818  1.00  0.00    -0.010 A 
ATOM      2  C   UNL     1     130.609 119.164 134.724  1.00  0.00     0.012 A 
ATOM      3  C   UNL     1     129.652 119.081 135.749  1.00  0.00    -0.032 A 
ATOM      4  C   UNL     1     128.682 120.084 135.857  1.00  0.00     0.005 A 
ATOM      5  C   UNL     1     128.663 121.146 134.953  1.00  0.00     0.001 A 
ATOM      6  C   UNL     1     129.617 121.216 133.937  1.00  0.00     0.007 A 
ENDROOT
BRANCH   1   7
ATOM      7  C   UNL     1     131.625 120.278 132.698  1.00  0.00     0.265 C 
BRANCH   7   8
ATOM      8  O   UNL     1     131.056 119.721 131.512  1.00  0.00    -0.489 OA
BRANCH   8   9
ATOM      9  C   UNL     1     131.725 118.692 130.905  1.00  0.00     0.122 A 
ATOM     10  C   UNL     1     132.949 116.452 129.766  1.00  0.00     0.083 A 
ATOM     11  C   UNL     1     131.823 116.285 130.575  1.00  0.00     0.029 A 
ATOM     12  C   UNL     1     133.462 117.723 129.510  1.00  0.00     0.025 A 
ATOM     13  C   UNL     1     131.206 117.405 131.153  1.00  0.00    -0.008 A 
ATOM     14  C   UNL     1     132.849 118.841 130.083  1.00  0.00     0.048 A 
ATOM     15  C   UNL     1     129.992 117.221 132.022  1.00  0.00     0.048 C 
BRANCH  10  16
ATOM     16  S   UNL     1     133.713 115.017 129.051  1.00  0.00     0.242 S 
ATOM     17  O   UNL     1     133.412 115.034 127.635  1.00  0.00    -0.207 OA
ATOM     18  O   UNL     1     135.078 114.936 129.528  1.00  0.00    -0.207 OA
BRANCH  16  19
ATOM     19  N   UNL     1     132.846 113.726 129.771  1.00  0.00    -0.204 NA
ATOM     20  C   UNL     1     133.683 112.603 130.249  1.00  0.00     0.124 C 
ATOM     21  C   UNL     1     131.727 113.247 128.928  1.00  0.00     0.124 C 
ENDBRANCH  16  19
ENDBRANCH  10  16
ENDBRANCH   8   9
ENDBRANCH   7   8
ENDBRANCH   1   7
BRANCH   3  22
ATOM     22  C   UNL     1     129.685 117.921 136.720  1.00  0.00     0.137 C 
BRANCH  22  23
ATOM     23  N   UNL     1     128.503 117.890 137.616  1.00  0.00    -0.197 NA
ATOM     24  C   UNL     1     128.696 118.642 138.872  1.00  0.00     0.125 C 
BRANCH  23  25
ATOM     25  S   UNL     1     127.705 116.394 137.741  1.00  0.00     0.243 S 
ATOM     26  O   UNL     1     128.523 115.507 138.543  1.00  0.00    -0.207 OA
ATOM     27  O   UNL     1     126.324 116.647 138.092  1.00  0.00    -0.207 OA
BRANCH  25  28
ATOM     28  C   UNL     1     127.732 115.781 136.070  1.00  0.00     0.082 A 
ATOM     29  C   UNL     1     128.931 115.344 135.512  1.00  0.00     0.022 A 
ATOM     30  C   UNL     1     126.544 115.688 135.347  1.00  0.00     0.022 A 
ATOM     31  C   UNL     1     128.942 114.850 134.205  1.00  0.00     0.005 A 
ATOM     32  C   UNL     1     126.564 115.191 134.039  1.00  0.00     0.005 A 
ATOM     33  C   UNL     1     127.762 114.767 133.436  1.00  0.00    -0.043 A 
BRANCH  33  34
ATOM     34  C   UNL     1     127.817 114.212 132.000  1.00  0.00    -0.013 C 
ATOM     35  C   UNL     1     126.846 113.017 131.869  1.00  0.00     0.016 C 
ATOM     36  C   UNL     1     127.406 115.314 131.002  1.00  0.00     0.016 C 
ATOM     37  C   UNL     1     129.216 113.709 131.577  1.00  0.00     0.016 C 
ENDBRANCH  33  34
ENDBRANCH  25  28
ENDBRANCH  23  25
ENDBRANCH  22  23
ENDBRANCH   3  22
TORSDOF 10
ENDMDL
