5
     RDKit          3D

 49 51  0  0  0  0  0  0  0  0999 V2000
   -0.7049    2.2734    1.1671 O   0  0  0  0  0  0  0  0  0  0  0  0
   -0.1317    1.6107    0.3132 C   0  0  0  0  0  0  0  0  0  0  0  0
   -0.5221    1.4196   -0.9954 N   0  0  0  0  0  0  0  0  0  0  0  0
   -1.6514    1.9624   -1.6585 C   0  0  0  0  0  0  0  0  0  0  0  0
   -2.5268    2.8643   -1.0432 C   0  0  0  0  0  0  0  0  0  0  0  0
   -3.6335    3.3724   -1.7306 C   0  0  0  0  0  0  0  0  0  0  0  0
   -3.8810    2.9872   -3.0436 C   0  0  0  0  0  0  0  0  0  0  0  0
   -3.0193    2.0927   -3.6746 C   0  0  0  0  0  0  0  0  0  0  0  0
   -1.9036    1.5766   -2.9961 C   0  0  0  0  0  0  0  0  0  0  0  0
   -1.0479    0.6408   -3.7407 C   0  0  0  0  0  0  0  0  0  0  0  0
    0.1208    1.0171   -4.2742 C   0  0  0  0  0  0  0  0  0  0  0  0
    1.1268    0.9287    0.7160 C   0  0  0  0  0  0  0  0  0  0  0  0
    1.3753   -0.3779    0.2749 C   0  0  0  0  0  0  0  0  0  0  0  0
    0.5205   -0.9776   -0.5685 F   0  0  0  0  0  0  0  0  0  0  0  0
    2.4974   -1.1011    0.6970 C   0  0  0  0  0  0  0  0  0  0  0  0
    2.6975   -2.5232    0.2451 C   0  0  0  0  0  0  0  0  0  0  0  0
    2.1510   -3.6786    1.4940 S   0  0  0  0  0  6  0  0  0  0  0  0
    0.4651   -3.2319    1.8374 C   0  0  0  0  0  0  0  0  0  0  0  0
    0.1673   -2.4563    2.9619 C   0  0  0  0  0  0  0  0  0  0  0  0
   -1.1534   -2.0798    3.2017 C   0  0  0  0  0  0  0  0  0  0  0  0
   -2.1661   -2.4919    2.3339 C   0  0  0  0  0  0  0  0  0  0  0  0
   -1.8657   -3.2904    1.2288 C   0  0  0  0  0  0  0  0  0  0  0  0
   -0.5473   -3.6692    0.9786 C   0  0  0  0  0  0  0  0  0  0  0  0
    2.9251   -3.4556    2.7027 O   0  0  0  0  0  0  0  0  0  0  0  0
    2.1215   -4.9983    0.8882 O   0  0  0  0  0  0  0  0  0  0  0  0
    3.3985   -0.4847    1.5691 C   0  0  0  0  0  0  0  0  0  0  0  0
    3.1732    0.8229    2.0054 C   0  0  0  0  0  0  0  0  0  0  0  0
    2.0419    1.5511    1.5846 C   0  0  0  0  0  0  0  0  0  0  0  0
    1.8582    2.9720    2.0690 C   0  0  0  0  0  0  0  0  0  0  0  0
    1.4775    3.8362    1.0903 F   0  0  0  0  0  0  0  0  0  0  0  0
    0.9751    3.0882    3.0936 F   0  0  0  0  0  0  0  0  0  0  0  0
    3.0280    3.4949    2.5509 F   0  0  0  0  0  0  0  0  0  0  0  0
    0.0313    0.7831   -1.5570 H   0  0  0  0  0  0  0  0  0  0  0  0
   -2.3760    3.1998   -0.0220 H   0  0  0  0  0  0  0  0  0  0  0  0
   -4.3000    4.0725   -1.2326 H   0  0  0  0  0  0  0  0  0  0  0  0
   -4.7411    3.3848   -3.5758 H   0  0  0  0  0  0  0  0  0  0  0  0
   -3.2193    1.8026   -4.7039 H   0  0  0  0  0  0  0  0  0  0  0  0
   -1.4266   -0.3704   -3.8607 H   0  0  0  0  0  0  0  0  0  0  0  0
    0.7240    0.3134   -4.8390 H   0  0  0  0  0  0  0  0  0  0  0  0
    0.4922    2.0340   -4.1790 H   0  0  0  0  0  0  0  0  0  0  0  0
    2.1507   -2.7398   -0.6782 H   0  0  0  0  0  0  0  0  0  0  0  0
    3.7575   -2.7225    0.0552 H   0  0  0  0  0  0  0  0  0  0  0  0
    0.9490   -2.1353    3.6468 H   0  0  0  0  0  0  0  0  0  0  0  0
   -1.3970   -1.4654    4.0656 H   0  0  0  0  0  0  0  0  0  0  0  0
   -3.1951   -2.1948    2.5243 H   0  0  0  0  0  0  0  0  0  0  0  0
   -2.6626   -3.6175    0.5651 H   0  0  0  0  0  0  0  0  0  0  0  0
   -0.3224   -4.2974    0.1199 H   0  0  0  0  0  0  0  0  0  0  0  0
    4.2768   -1.0200    1.9318 H   0  0  0  0  0  0  0  0  0  0  0  0
    3.8926    1.2780    2.6887 H   0  0  0  0  0  0  0  0  0  0  0  0
  1  2  2  0
  2  3  1  0
  3  4  1  0
  4  5  2  0
  5  6  1  0
  6  7  2  0
  7  8  1  0
  8  9  2  0
  9 10  1  0
 10 11  2  0
  2 12  1  0
 12 13  2  0
 13 14  1  0
 13 15  1  0
 15 16  1  0
 16 17  1  0
 17 18  1  0
 18 19  2  0
 19 20  1  0
 20 21  2  0
 21 22  1  0
 22 23  2  0
 17 24  2  0
 17 25  2  0
 15 26  2  0
 26 27  1  0
 27 28  2  0
 28 29  1  0
 29 30  1  0
 29 31  1  0
 29 32  1  0
  9  4  1  0
 28 12  1  0
 23 18  1  0
  3 33  1  0
  5 34  1  0
  6 35  1  0
  7 36  1  0
  8 37  1  0
 10 38  1  0
 11 39  1  0
 11 40  1  0
 16 41  1  0
 16 42  1  0
 19 43  1  0
 20 44  1  0
 21 45  1  0
 22 46  1  0
 23 47  1  0
 26 48  1  0
 27 49  1  0
M  END
$$$$
