AGAN-209
     RDKit          3D

 37 42  0  0  0  0  0  0  0  0999 V2000
    0.8183   -5.3535   -0.3275 O   0  0  0  0  0  1  0  0  0  0  0  0
    1.1468   -4.1158    0.2443 C   0  0  0  0  0  2  0  0  0  0  0  0
    1.4803   -2.7469    0.8578 C   0  0  0  0  0  2  0  0  0  0  0  0
    1.7191   -1.4540    1.3816 C   0  0  0  0  0  3  0  0  0  0  0  0
    1.9894   -0.2908    0.5722 C   0  0  0  0  0  2  0  0  0  0  0  0
    2.1549    1.0715    0.5912 N   0  0  0  0  0  0  0  0  0  0  0  0
    2.2133    2.0137   -0.4375 C   0  0  0  0  0  0  0  0  0  0  0  0
    2.4006    3.2155   -0.2306 O   0  0  0  0  0  0  0  0  0  0  0  0
    2.0214    1.5766   -1.8451 C   0  0  0  0  0  0  0  0  0  0  0  0
    2.2639    2.5122   -2.8535 C   0  0  0  0  0  3  0  0  0  0  0  0
    2.0310    2.1896   -4.1885 C   0  0  0  0  0  3  0  0  0  0  0  0
    1.5438    0.9297   -4.5236 C   0  0  0  0  0  3  0  0  0  0  0  0
    1.2929   -0.0063   -3.5249 C   0  0  0  0  0  3  0  0  0  0  0  0
    1.5270    0.3211   -2.1914 C   0  0  0  0  0  3  0  0  0  0  0  0
    2.1055    1.3390    1.9308 C   0  0  0  0  0  2  0  0  0  0  0  0
    1.8072    0.2905    3.0234 C   0  0  0  0  0  2  0  0  0  0  0  0
    1.5703   -1.1764    2.9004 N   0  0  0  0  0  0  0  0  0  0  0  0
    0.1746   -1.4855    3.3245 C   0  0  0  0  0  3  0  0  0  0  0  0
   -0.9056   -0.7271    2.8804 O   0  0  0  0  0  0  0  0  0  0  0  0
   -1.5326   -1.1931    1.7493 C   0  0  0  0  0  0  0  0  0  0  0  0
   -1.9593   -2.5202    1.6480 C   0  0  0  0  0  3  0  0  0  0  0  0
   -2.5721   -2.9869    0.4802 C   0  0  0  0  0  3  0  0  0  0  0  0
   -2.7673   -2.1418   -0.6119 C   0  0  0  0  0  3  0  0  0  0  0  0
   -2.3694   -0.8169   -0.5113 C   0  0  0  0  0  0  0  0  0  0  0  0
   -1.7676   -0.3266    0.6891 C   0  0  0  0  0  0  0  0  0  0  0  0
   -1.4028    1.0680    0.6796 C   0  0  0  0  0  3  0  0  0  0  0  0
   -1.3899    2.0323   -0.0373 C   0  0  0  0  0  3  0  0  0  0  0  0
   -1.7304    2.4262   -1.3762 C   0  0  0  0  0  0  0  0  0  0  0  0
   -1.4865    3.6955   -1.8754 C   0  0  0  0  0  3  0  0  0  0  0  0
   -1.8282    3.9655   -3.2001 C   0  0  0  0  0  3  0  0  0  0  0  0
   -2.4032    2.9789   -4.0106 C   0  0  0  0  0  3  0  0  0  0  0  0
   -2.6507    1.6982   -3.5161 C   0  0  0  0  0  3  0  0  0  0  0  0
   -2.3166    1.4190   -2.2006 C   0  0  0  0  0  0  0  0  0  0  0  0
   -2.5107    0.1129   -1.6117 C   0  0  0  0  0  2  0  0  0  0  0  0
   -0.0777   -2.1922    4.5538 C   0  0  0  0  0  3  0  0  0  0  0  0
    0.7032   -3.3090    4.9793 C   0  0  0  0  0  2  0  0  0  0  0  0
    0.7071   -2.0130    5.7337 C   0  0  0  0  0  2  0  0  0  0  0  0
  1  2  1  0
  2  3  1  0
  3  4  1  0
  4  5  1  0
  5  6  1  0
  6  7  1  0
  7  8  2  0
  7  9  1  0
  9 10  2  0
 10 11  1  0
 11 12  2  0
 12 13  1  0
 13 14  2  0
  6 15  1  0
 15 16  1  0
 16 17  1  0
 17 18  1  0
 18 19  1  0
 19 20  1  0
 20 21  2  0
 21 22  1  0
 22 23  2  0
 23 24  1  0
 24 25  2  0
 25 26  1  0
 26 27  2  0
 27 28  1  0
 28 29  2  0
 29 30  1  0
 30 31  2  0
 31 32  1  0
 32 33  2  0
 33 34  1  0
 18 35  1  0
 35 36  1  0
 36 37  1  0
 17  4  1  0
 25 20  1  0
 33 28  1  0
 37 35  1  0
 14  9  1  0
 34 24  1  0
M  RAD  8   1   2   2   3   3   3   4   2   5   3  10   2  11   2  12   2
M  RAD  8  13   2  14   2  15   3  16   3  18   2  21   2  22   2  23   2
M  RAD  8  26   2  27   2  29   2  30   2  31   2  32   2  34   3  35   2
M  RAD  2  36   3  37   3
M  END
$$$$
