AGAN245-df-15-CN
     RDKit          3D

 62 65  0  0  0  0  0  0  0  0999 V2000
   -7.6097    0.7210    0.5978 N   0  0  0  0  0  0  0  0  0  0  0  0
   -7.4393   -0.4216    1.3272 C   0  0  0  0  0  0  0  0  0  0  0  0
   -8.1468   -1.4032    1.1227 O   0  0  0  0  0  0  0  0  0  0  0  0
   -6.3930   -0.3659    2.4242 C   0  0  0  0  0  0  0  0  0  0  0  0
   -5.0313    0.0714    1.9400 C   0  0  0  0  0  0  0  0  0  0  0  0
   -4.5115    1.3169    2.2964 C   0  0  0  0  0  0  0  0  0  0  0  0
   -3.2604    1.7266    1.8251 C   0  0  0  0  0  0  0  0  0  0  0  0
   -2.4978    0.9024    0.9896 C   0  0  0  0  0  0  0  0  0  0  0  0
   -1.2293    1.2963    0.4917 N   0  0  0  0  0  0  0  0  0  0  0  0
   -0.5870    2.5014    0.6715 C   0  0  0  0  0  0  0  0  0  0  0  0
   -0.9938    3.4997    1.2492 O   0  0  0  0  0  0  0  0  0  0  0  0
    0.7502    2.5864    0.0494 C   0  0  0  0  0  0  0  0  0  0  0  0
    1.7210    1.6475    0.4115 C   0  0  0  0  0  0  0  0  0  0  0  0
    1.4213    0.6697    1.2803 F   0  0  0  0  0  0  0  0  0  0  0  0
    3.0222    1.7142   -0.0964 C   0  0  0  0  0  0  0  0  0  0  0  0
    4.0437    0.6843    0.3042 C   0  0  0  0  0  0  0  0  0  0  0  0
    3.9838   -0.6727   -0.8603 S   0  0  0  0  0  6  0  0  0  0  0  0
    4.5210   -0.2176   -2.1304 O   0  0  0  0  0  0  0  0  0  0  0  0
    2.6839   -1.3137   -0.7922 O   0  0  0  0  0  0  0  0  0  0  0  0
    5.1602   -1.8170   -0.1717 C   0  0  0  0  0  0  0  0  0  0  0  0
    4.7413   -2.7222    0.8080 C   0  0  0  0  0  0  0  0  0  0  0  0
    5.6617   -3.6206    1.3466 C   0  0  0  0  0  0  0  0  0  0  0  0
    6.9846   -3.6175    0.9005 C   0  0  0  0  0  0  0  0  0  0  0  0
    7.3917   -2.7220   -0.0905 C   0  0  0  0  0  0  0  0  0  0  0  0
    6.4785   -1.8196   -0.6350 C   0  0  0  0  0  0  0  0  0  0  0  0
    3.3411    2.7432   -0.9896 C   0  0  0  0  0  0  0  0  0  0  0  0
    2.3764    3.6881   -1.3527 C   0  0  0  0  0  0  0  0  0  0  0  0
    1.0667    3.6245   -0.8407 C   0  0  0  0  0  0  0  0  0  0  0  0
    0.0443    4.6555   -1.2517 C   0  0  0  0  0  0  0  0  0  0  0  0
   -0.1319    5.6365   -0.3291 F   0  0  0  0  0  0  0  0  0  0  0  0
    0.4085    5.3058   -2.3982 F   0  0  0  0  0  0  0  0  0  0  0  0
   -1.1800    4.1299   -1.5247 F   0  0  0  0  0  0  0  0  0  0  0  0
   -3.0076   -0.3692    0.6265 C   0  0  0  0  0  0  0  0  0  0  0  0
   -4.2724   -0.7622    1.1087 C   0  0  0  0  0  0  0  0  0  0  0  0
   -2.2753   -1.2956   -0.2535 C   0  0  0  0  0  0  0  0  0  0  0  0
   -1.1450   -1.9875    0.2092 C   0  0  0  0  0  0  0  0  0  0  0  0
   -0.4294   -2.8319   -0.6414 C   0  0  0  0  0  0  0  0  0  0  0  0
   -0.8409   -3.0059   -1.9609 C   0  0  0  0  0  0  0  0  0  0  0  0
   -1.9688   -2.3381   -2.4317 C   0  0  0  0  0  0  0  0  0  0  0  0
   -2.6810   -1.4877   -1.5837 C   0  0  0  0  0  0  0  0  0  0  0  0
   -6.8616    1.3998    0.5300 H   0  0  0  0  0  0  0  0  0  0  0  0
   -8.2373    0.6497   -0.1929 H   0  0  0  0  0  0  0  0  0  0  0  0
   -6.3053   -1.3618    2.8754 H   0  0  0  0  0  0  0  0  0  0  0  0
   -6.7629    0.3032    3.2102 H   0  0  0  0  0  0  0  0  0  0  0  0
   -5.0706    1.9875    2.9462 H   0  0  0  0  0  0  0  0  0  0  0  0
   -2.9056    2.7041    2.1368 H   0  0  0  0  0  0  0  0  0  0  0  0
   -0.7523    0.6020   -0.0752 H   0  0  0  0  0  0  0  0  0  0  0  0
    3.8402    0.2931    1.3057 H   0  0  0  0  0  0  0  0  0  0  0  0
    5.0539    1.1054    0.2914 H   0  0  0  0  0  0  0  0  0  0  0  0
    3.7084   -2.7416    1.1492 H   0  0  0  0  0  0  0  0  0  0  0  0
    5.3480   -4.3311    2.1081 H   0  0  0  0  0  0  0  0  0  0  0  0
    7.6985   -4.3240    1.3183 H   0  0  0  0  0  0  0  0  0  0  0  0
    8.4203   -2.7359   -0.4440 H   0  0  0  0  0  0  0  0  0  0  0  0
    6.8008   -1.1368   -1.4181 H   0  0  0  0  0  0  0  0  0  0  0  0
    4.3403    2.8160   -1.4191 H   0  0  0  0  0  0  0  0  0  0  0  0
    2.6519    4.4801   -2.0508 H   0  0  0  0  0  0  0  0  0  0  0  0
   -4.6669   -1.7398    0.8285 H   0  0  0  0  0  0  0  0  0  0  0  0
   -0.8076   -1.8602    1.2361 H   0  0  0  0  0  0  0  0  0  0  0  0
    0.4586   -3.3435   -0.2787 H   0  0  0  0  0  0  0  0  0  0  0  0
   -0.2772   -3.6584   -2.6226 H   0  0  0  0  0  0  0  0  0  0  0  0
   -2.2904   -2.4734   -3.4611 H   0  0  0  0  0  0  0  0  0  0  0  0
   -3.5532   -0.9637   -1.9697 H   0  0  0  0  0  0  0  0  0  0  0  0
  1  2  1  0
  2  3  2  0
  2  4  1  0
  4  5  1  0
  5  6  2  0
  6  7  1  0
  7  8  2  0
  8  9  1  0
  9 10  1  0
 10 11  2  0
 10 12  1  0
 12 13  2  0
 13 14  1  0
 13 15  1  0
 15 16  1  0
 16 17  1  0
 17 18  2  0
 17 19  2  0
 17 20  1  0
 20 21  2  0
 21 22  1  0
 22 23  2  0
 23 24  1  0
 24 25  2  0
 15 26  2  0
 26 27  1  0
 27 28  2  0
 28 29  1  0
 29 30  1  0
 29 31  1  0
 29 32  1  0
  8 33  1  0
 33 34  2  0
 33 35  1  0
 35 36  2  0
 36 37  1  0
 37 38  2  0
 38 39  1  0
 39 40  2  0
 34  5  1  0
 40 35  1  0
 28 12  1  0
 25 20  1  0
  1 41  1  0
  1 42  1  0
  4 43  1  0
  4 44  1  0
  6 45  1  0
  7 46  1  0
  9 47  1  0
 16 48  1  0
 16 49  1  0
 21 50  1  0
 22 51  1  0
 23 52  1  0
 24 53  1  0
 25 54  1  0
 26 55  1  0
 27 56  1  0
 34 57  1  0
 36 58  1  0
 37 59  1  0
 38 60  1  0
 39 61  1  0
 40 62  1  0
M  END
$$$$
