AGAN-407
     RDKit          3D

 71 74  0  0  0  0  0  0  0  0999 V2000
    3.6218   -3.2374   -0.0880 C   0  0  0  0  0  0  0  0  0  0  0  0
    4.0736   -2.2660    0.9015 N   0  0  0  0  0  0  0  0  0  0  0  0
    3.3334   -1.1533    1.2881 C   0  0  0  0  0  0  0  0  0  0  0  0
    1.9170   -1.0517    0.7536 C   0  0  0  0  0  0  0  0  0  0  0  0
    1.2413    0.2381    1.2149 C   0  0  0  0  0  0  0  0  0  0  0  0
   -0.1458    0.3745    0.6698 C   0  0  0  0  0  0  0  0  0  0  0  0
   -0.7931   -0.5358   -0.0314 N   0  0  0  0  0  0  0  0  0  0  0  0
   -2.0137    0.0106   -0.3275 C   0  0  0  0  0  0  0  0  0  0  0  0
   -3.0731   -0.5414   -1.0585 C   0  0  0  0  0  0  0  0  0  0  0  0
   -4.2329    0.2284   -1.2092 C   0  0  0  0  0  0  0  0  0  0  0  0
   -5.6054   -0.4278   -2.1224 S   0  0  0  0  0  6  0  0  0  0  0  0
   -6.7888   -0.6252   -0.9142 N   0  0  0  0  0  0  0  0  0  0  0  0
   -6.5123   -1.6425    0.1501 C   0  0  0  0  0  0  0  0  0  0  0  0
   -6.9131   -3.0582   -0.2850 C   0  0  0  0  0  0  0  0  0  0  0  0
   -8.2797   -3.1073   -0.7184 O   0  0  0  0  0  0  0  0  0  0  0  0
   -8.4863   -2.2187   -1.8264 C   0  0  0  0  0  0  0  0  0  0  0  0
   -8.1897   -0.7731   -1.4205 C   0  0  0  0  0  0  0  0  0  0  0  0
   -5.2492   -1.7404   -2.6150 O   0  0  0  0  0  0  0  0  0  0  0  0
   -6.0519    0.6119   -3.0248 O   0  0  0  0  0  0  0  0  0  0  0  0
   -4.3382    1.5162   -0.6710 C   0  0  0  0  0  0  0  0  0  0  0  0
   -3.2816    2.0743    0.0554 C   0  0  0  0  0  0  0  0  0  0  0  0
   -2.1320    1.2884    0.2108 C   0  0  0  0  0  0  0  0  0  0  0  0
   -0.9257    1.4995    0.8414 N   0  0  0  0  0  0  0  0  0  0  0  0
   -0.5529    2.7032    1.5666 C   0  0  0  0  0  0  0  0  0  0  0  0
    0.0739    3.7535    0.6501 C   0  0  0  0  0  0  0  0  0  0  0  0
    0.4041    5.0608    1.3717 C   0  0  0  0  0  0  0  0  0  0  0  0
    1.4941    4.9124    2.4221 C   0  0  0  0  0  0  0  0  0  0  0  0
    3.7941   -0.2841    2.0308 O   0  0  0  0  0  0  0  0  0  0  0  0
    5.4791   -2.3393    1.2990 C   0  0  0  0  0  0  0  0  0  0  0  0
    6.4084   -1.7821    0.2514 C   0  0  0  0  0  0  0  0  0  0  0  0
    7.0583   -2.6293   -0.6475 C   0  0  0  0  0  0  0  0  0  0  0  0
    6.8535   -3.9527   -0.5839 F   0  0  0  0  0  0  0  0  0  0  0  0
    7.9257   -2.1340   -1.6127 C   0  0  0  0  0  0  0  0  0  0  0  0
    8.1403   -0.7594   -1.6946 C   0  0  0  0  0  0  0  0  0  0  0  0
    9.2360   -0.1700   -2.8967 Cl  0  0  0  0  0  0  0  0  0  0  0  0
    7.4629    0.1330   -0.8426 C   0  0  0  0  0  0  0  0  0  0  0  0
    7.7563    1.5075   -0.8202 N   0  0  0  0  0  0  0  0  0  0  0  0
    6.6318   -0.3990    0.1520 C   0  0  0  0  0  0  0  0  0  0  0  0
    3.9329   -2.8991   -1.0805 H   0  0  0  0  0  0  0  0  0  0  0  0
    2.5364   -3.3507   -0.0785 H   0  0  0  0  0  0  0  0  0  0  0  0
    4.0663   -4.2135    0.1272 H   0  0  0  0  0  0  0  0  0  0  0  0
    1.9515   -1.0787   -0.3419 H   0  0  0  0  0  0  0  0  0  0  0  0
    1.3452   -1.9141    1.1156 H   0  0  0  0  0  0  0  0  0  0  0  0
    1.1975    0.2578    2.3109 H   0  0  0  0  0  0  0  0  0  0  0  0
    1.8413    1.0994    0.8968 H   0  0  0  0  0  0  0  0  0  0  0  0
   -2.9771   -1.5341   -1.4841 H   0  0  0  0  0  0  0  0  0  0  0  0
   -5.4643   -1.6170    0.4602 H   0  0  0  0  0  0  0  0  0  0  0  0
   -7.1052   -1.3509    1.0264 H   0  0  0  0  0  0  0  0  0  0  0  0
   -6.8156   -3.7408    0.5655 H   0  0  0  0  0  0  0  0  0  0  0  0
   -6.2715   -3.4449   -1.0826 H   0  0  0  0  0  0  0  0  0  0  0  0
   -7.8701   -2.5431   -2.6720 H   0  0  0  0  0  0  0  0  0  0  0  0
   -9.5348   -2.3089   -2.1271 H   0  0  0  0  0  0  0  0  0  0  0  0
   -8.3821   -0.0871   -2.2508 H   0  0  0  0  0  0  0  0  0  0  0  0
   -8.8591   -0.4744   -0.6039 H   0  0  0  0  0  0  0  0  0  0  0  0
   -5.2495    2.0943   -0.8186 H   0  0  0  0  0  0  0  0  0  0  0  0
   -3.3577    3.0735    0.4709 H   0  0  0  0  0  0  0  0  0  0  0  0
   -1.4566    3.0938    2.0479 H   0  0  0  0  0  0  0  0  0  0  0  0
    0.1308    2.4096    2.3688 H   0  0  0  0  0  0  0  0  0  0  0  0
    0.9810    3.3519    0.1820 H   0  0  0  0  0  0  0  0  0  0  0  0
   -0.6186    3.9791   -0.1709 H   0  0  0  0  0  0  0  0  0  0  0  0
    0.7359    5.7943    0.6273 H   0  0  0  0  0  0  0  0  0  0  0  0
   -0.5000    5.4691    1.8380 H   0  0  0  0  0  0  0  0  0  0  0  0
    1.1672    4.2815    3.2537 H   0  0  0  0  0  0  0  0  0  0  0  0
    2.3995    4.4747    1.9900 H   0  0  0  0  0  0  0  0  0  0  0  0
    1.7548    5.8929    2.8335 H   0  0  0  0  0  0  0  0  0  0  0  0
    5.6348   -1.7961    2.2391 H   0  0  0  0  0  0  0  0  0  0  0  0
    5.7210   -3.3855    1.5222 H   0  0  0  0  0  0  0  0  0  0  0  0
    8.4284   -2.8223   -2.2837 H   0  0  0  0  0  0  0  0  0  0  0  0
    8.1421    1.8455   -1.6997 H   0  0  0  0  0  0  0  0  0  0  0  0
    7.0055    2.0913   -0.4652 H   0  0  0  0  0  0  0  0  0  0  0  0
    6.1497    0.2691    0.8648 H   0  0  0  0  0  0  0  0  0  0  0  0
  1  2  1  0
  2  3  1  0
  3  4  1  0
  4  5  1  0
  5  6  1  0
  6  7  2  0
  7  8  1  0
  8  9  2  0
  9 10  1  0
 10 11  1  0
 11 12  1  0
 12 13  1  0
 13 14  1  0
 14 15  1  0
 15 16  1  0
 16 17  1  0
 11 18  2  0
 11 19  2  0
 10 20  2  0
 20 21  1  0
  8 22  1  0
 22 23  1  0
 23 24  1  0
 24 25  1  0
 25 26  1  0
 26 27  1  0
  3 28  2  0
  2 29  1  0
 29 30  1  0
 30 31  2  0
 31 32  1  0
 31 33  1  0
 33 34  2  0
 34 35  1  0
 34 36  1  0
 36 37  1  0
 36 38  2  0
 23  6  1  0
 17 12  1  0
 22 21  2  0
 38 30  1  0
  1 39  1  0
  1 40  1  0
  1 41  1  0
  4 42  1  0
  4 43  1  0
  5 44  1  0
  5 45  1  0
  9 46  1  0
 13 47  1  0
 13 48  1  0
 14 49  1  0
 14 50  1  0
 16 51  1  0
 16 52  1  0
 17 53  1  0
 17 54  1  0
 20 55  1  0
 21 56  1  0
 24 57  1  0
 24 58  1  0
 25 59  1  0
 25 60  1  0
 26 61  1  0
 26 62  1  0
 27 63  1  0
 27 64  1  0
 27 65  1  0
 29 66  1  0
 29 67  1  0
 33 68  1  0
 37 69  1  0
 37 70  1  0
 38 71  1  0
M  END
$$$$
