AGAN245-df-11-CN
     RDKit          3D

 59 62  0  0  0  0  0  0  0  0999 V2000
   -7.9797    0.9370   -0.2403 N   0  0  0  0  0  0  0  0  0  0  0  0
   -6.9054    1.2318    0.5527 C   0  0  0  0  0  0  0  0  0  0  0  0
   -7.0311    1.9500    1.5363 O   0  0  0  0  0  0  0  0  0  0  0  0
   -5.5837    0.6821    0.1511 C   0  0  0  0  0  0  0  0  0  0  0  0
   -5.4618   -0.4489   -0.6558 C   0  0  0  0  0  0  0  0  0  0  0  0
   -4.1949   -0.9312   -1.0035 C   0  0  0  0  0  0  0  0  0  0  0  0
   -3.0297   -0.3016   -0.5472 C   0  0  0  0  0  0  0  0  0  0  0  0
   -1.7346   -0.7753   -0.8798 N   0  0  0  0  0  0  0  0  0  0  0  0
   -1.3982   -1.9040   -1.5996 C   0  0  0  0  0  0  0  0  0  0  0  0
   -2.1646   -2.7428   -2.0536 O   0  0  0  0  0  0  0  0  0  0  0  0
    0.0563   -2.1078   -1.8380 C   0  0  0  0  0  0  0  0  0  0  0  0
    0.9702   -1.8016   -0.8221 C   0  0  0  0  0  0  0  0  0  0  0  0
    0.5366   -1.2985    0.3447 F   0  0  0  0  0  0  0  0  0  0  0  0
    2.3461   -2.0042   -0.9786 C   0  0  0  0  0  0  0  0  0  0  0  0
    3.2907   -1.5947    0.1185 C   0  0  0  0  0  0  0  0  0  0  0  0
    3.8564    0.0722   -0.2171 S   0  0  0  0  0  6  0  0  0  0  0  0
    2.7166    0.9530   -0.3942 O   0  0  0  0  0  0  0  0  0  0  0  0
    4.8990    0.0034   -1.2260 O   0  0  0  0  0  0  0  0  0  0  0  0
    4.6286    0.5335    1.3172 C   0  0  0  0  0  0  0  0  0  0  0  0
    3.8261    0.9654    2.3779 C   0  0  0  0  0  0  0  0  0  0  0  0
    4.4240    1.3310    3.5830 C   0  0  0  0  0  0  0  0  0  0  0  0
    5.8122    1.2723    3.7194 C   0  0  0  0  0  0  0  0  0  0  0  0
    6.6083    0.8545    2.6508 C   0  0  0  0  0  0  0  0  0  0  0  0
    6.0190    0.4866    1.4414 C   0  0  0  0  0  0  0  0  0  0  0  0
    2.8128   -2.5411   -2.1802 C   0  0  0  0  0  0  0  0  0  0  0  0
    1.9138   -2.8554   -3.2021 C   0  0  0  0  0  0  0  0  0  0  0  0
    0.5282   -2.6341   -3.0549 C   0  0  0  0  0  0  0  0  0  0  0  0
   -0.3939   -2.9476   -4.2116 C   0  0  0  0  0  0  0  0  0  0  0  0
   -1.3071   -1.9716   -4.4634 F   0  0  0  0  0  0  0  0  0  0  0  0
   -1.0677   -4.1181   -4.0667 F   0  0  0  0  0  0  0  0  0  0  0  0
    0.2953   -3.0838   -5.3866 F   0  0  0  0  0  0  0  0  0  0  0  0
   -3.1444    0.8458    0.2793 C   0  0  0  0  0  0  0  0  0  0  0  0
   -4.4287    1.3154    0.6212 C   0  0  0  0  0  0  0  0  0  0  0  0
   -1.9749    1.5687    0.8097 C   0  0  0  0  0  0  0  0  0  0  0  0
   -1.1718    2.3568   -0.0297 C   0  0  0  0  0  0  0  0  0  0  0  0
   -0.0544    3.0254    0.4741 C   0  0  0  0  0  0  0  0  0  0  0  0
    0.2672    2.9278    1.8260 C   0  0  0  0  0  0  0  0  0  0  0  0
   -0.5238    2.1576    2.6750 C   0  0  0  0  0  0  0  0  0  0  0  0
   -1.6365    1.4813    2.1696 C   0  0  0  0  0  0  0  0  0  0  0  0
   -8.8380    1.4254   -0.0179 H   0  0  0  0  0  0  0  0  0  0  0  0
   -7.8742    0.5940   -1.1841 H   0  0  0  0  0  0  0  0  0  0  0  0
   -6.3355   -0.9902   -1.0071 H   0  0  0  0  0  0  0  0  0  0  0  0
   -4.1549   -1.8137   -1.6349 H   0  0  0  0  0  0  0  0  0  0  0  0
   -0.9667   -0.2326   -0.4949 H   0  0  0  0  0  0  0  0  0  0  0  0
    4.1622   -2.2547    0.1658 H   0  0  0  0  0  0  0  0  0  0  0  0
    2.7910   -1.6055    1.0916 H   0  0  0  0  0  0  0  0  0  0  0  0
    2.7449    1.0265    2.2723 H   0  0  0  0  0  0  0  0  0  0  0  0
    3.8110    1.6698    4.4151 H   0  0  0  0  0  0  0  0  0  0  0  0
    6.2769    1.5635    4.6589 H   0  0  0  0  0  0  0  0  0  0  0  0
    7.6901    0.8247    2.7602 H   0  0  0  0  0  0  0  0  0  0  0  0
    6.6483    0.1766    0.6101 H   0  0  0  0  0  0  0  0  0  0  0  0
    3.8788   -2.6984   -2.3437 H   0  0  0  0  0  0  0  0  0  0  0  0
    2.3053   -3.2612   -4.1366 H   0  0  0  0  0  0  0  0  0  0  0  0
   -4.5275    2.1948    1.2582 H   0  0  0  0  0  0  0  0  0  0  0  0
   -1.4124    2.4521   -1.0870 H   0  0  0  0  0  0  0  0  0  0  0  0
    0.5680    3.6198   -0.1906 H   0  0  0  0  0  0  0  0  0  0  0  0
    1.1351    3.4547    2.2141 H   0  0  0  0  0  0  0  0  0  0  0  0
   -0.2789    2.0843    3.7312 H   0  0  0  0  0  0  0  0  0  0  0  0
   -2.2437    0.8809    2.8448 H   0  0  0  0  0  0  0  0  0  0  0  0
  1  2  1  0
  2  3  2  0
  2  4  1  0
  4  5  2  0
  5  6  1  0
  6  7  2  0
  7  8  1  0
  8  9  1  0
  9 10  2  0
  9 11  1  0
 11 12  2  0
 12 13  1  0
 12 14  1  0
 14 15  1  0
 15 16  1  0
 16 17  2  0
 16 18  2  0
 16 19  1  0
 19 20  2  0
 20 21  1  0
 21 22  2  0
 22 23  1  0
 23 24  2  0
 14 25  2  0
 25 26  1  0
 26 27  2  0
 27 28  1  0
 28 29  1  0
 28 30  1  0
 28 31  1  0
  7 32  1  0
 32 33  2  0
 32 34  1  0
 34 35  2  0
 35 36  1  0
 36 37  2  0
 37 38  1  0
 38 39  2  0
 33  4  1  0
 39 34  1  0
 27 11  1  0
 24 19  1  0
  1 40  1  0
  1 41  1  0
  5 42  1  0
  6 43  1  0
  8 44  1  0
 15 45  1  0
 15 46  1  0
 20 47  1  0
 21 48  1  0
 22 49  1  0
 23 50  1  0
 24 51  1  0
 25 52  1  0
 26 53  1  0
 33 54  1  0
 35 55  1  0
 36 56  1  0
 37 57  1  0
 38 58  1  0
 39 59  1  0
M  END
$$$$
