AGAN406
     RDKit          3D

 75 76  0  0  0  0  0  0  0  0999 V2000
    4.7753    0.3721   -2.4873 C   0  0  0  0  0  0  0  0  0  0  0  0
    5.7673    0.0581   -1.4005 C   0  0  0  0  0  0  0  0  0  0  0  0
    7.0465   -0.4083   -1.7406 C   0  0  0  0  0  0  0  0  0  0  0  0
    7.9686   -0.7005   -0.7341 C   0  0  0  0  0  0  0  0  0  0  0  0
    9.5908   -1.2899   -1.1486 S   0  0  0  0  0  6  0  0  0  0  0  0
    9.8437   -2.4562   -0.3295 O   0  0  0  0  0  0  0  0  0  0  0  0
    9.7099   -1.3456   -2.5910 O   0  0  0  0  0  0  0  0  0  0  0  0
   10.6051   -0.0201   -0.6030 N   0  0  0  0  0  0  0  0  0  0  0  0
   10.4399    1.2629   -1.3232 C   0  0  0  0  0  0  0  0  0  0  0  0
   12.0296   -0.4184   -0.5281 C   0  0  0  0  0  0  0  0  0  0  0  0
    7.6286   -0.5482    0.6105 C   0  0  0  0  0  0  0  0  0  0  0  0
    6.3558   -0.0854    0.9528 C   0  0  0  0  0  0  0  0  0  0  0  0
    5.4213    0.2192   -0.0437 C   0  0  0  0  0  0  0  0  0  0  0  0
    4.1532    0.6827    0.1892 O   0  0  0  0  0  0  0  0  0  0  0  0
    3.7149    0.7652    1.5445 C   0  0  0  0  0  0  0  0  0  0  0  0
    2.2609    1.2363    1.5605 C   0  0  0  0  0  0  0  0  0  0  0  0
    1.3185    0.2238    0.9027 C   0  0  0  0  0  0  0  0  0  0  0  0
   -0.1320    0.7095    0.9418 C   0  0  0  0  0  0  0  0  0  0  0  0
   -1.0773   -0.3175    0.3122 C   0  0  0  0  0  0  0  0  0  0  0  0
   -2.5265    0.1662    0.2494 C   0  0  0  0  0  0  0  0  0  0  0  0
   -3.0766    0.3275    1.6151 N   0  0  0  0  0  0  0  0  0  0  0  0
   -3.4883    1.7034    1.9387 C   0  0  0  0  0  0  0  0  0  0  0  0
   -4.0319   -0.9337    2.2407 S   0  0  0  0  0  6  0  0  0  0  0  0
   -4.3121   -0.6405    3.6310 O   0  0  0  0  0  0  0  0  0  0  0  0
   -3.4308   -2.1923    1.8513 O   0  0  0  0  0  0  0  0  0  0  0  0
   -5.5643   -0.7704    1.3474 C   0  0  0  0  0  0  0  0  0  0  0  0
   -5.7854   -1.5265    0.1973 C   0  0  0  0  0  0  0  0  0  0  0  0
   -7.0015   -1.4145   -0.4859 C   0  0  0  0  0  0  0  0  0  0  0  0
   -8.0225   -0.5627   -0.0278 C   0  0  0  0  0  0  0  0  0  0  0  0
   -9.3727   -0.4207   -0.7551 C   0  0  0  0  0  0  0  0  0  0  0  0
   -9.5926    1.0532   -1.1597 C   0  0  0  0  0  0  0  0  0  0  0  0
  -10.5155   -0.8664    0.1823 C   0  0  0  0  0  0  0  0  0  0  0  0
   -9.4809   -1.2673   -2.0435 C   0  0  0  0  0  0  0  0  0  0  0  0
   -7.7790    0.1661    1.1551 C   0  0  0  0  0  0  0  0  0  0  0  0
   -6.5674    0.0603    1.8436 C   0  0  0  0  0  0  0  0  0  0  0  0
    4.4737    1.4232   -2.4332 H   0  0  0  0  0  0  0  0  0  0  0  0
    3.8913   -0.2663   -2.3892 H   0  0  0  0  0  0  0  0  0  0  0  0
    5.2006    0.2004   -3.4817 H   0  0  0  0  0  0  0  0  0  0  0  0
    7.3179   -0.5436   -2.7857 H   0  0  0  0  0  0  0  0  0  0  0  0
   10.7655    1.1771   -2.3641 H   0  0  0  0  0  0  0  0  0  0  0  0
    9.4017    1.6023   -1.2904 H   0  0  0  0  0  0  0  0  0  0  0  0
   11.0412    2.0377   -0.8359 H   0  0  0  0  0  0  0  0  0  0  0  0
   12.1547   -1.2725    0.1437 H   0  0  0  0  0  0  0  0  0  0  0  0
   12.4203   -0.6682   -1.5192 H   0  0  0  0  0  0  0  0  0  0  0  0
   12.6253    0.4026   -0.1156 H   0  0  0  0  0  0  0  0  0  0  0  0
    8.3484   -0.7880    1.3904 H   0  0  0  0  0  0  0  0  0  0  0  0
    6.1253    0.0258    2.0073 H   0  0  0  0  0  0  0  0  0  0  0  0
    4.3248    1.4978    2.0861 H   0  0  0  0  0  0  0  0  0  0  0  0
    3.7881   -0.2137    2.0334 H   0  0  0  0  0  0  0  0  0  0  0  0
    1.9516    1.4075    2.5980 H   0  0  0  0  0  0  0  0  0  0  0  0
    2.1843    2.1917    1.0272 H   0  0  0  0  0  0  0  0  0  0  0  0
    1.6173    0.0555   -0.1389 H   0  0  0  0  0  0  0  0  0  0  0  0
    1.3978   -0.7393    1.4214 H   0  0  0  0  0  0  0  0  0  0  0  0
   -0.4227    0.8955    1.9823 H   0  0  0  0  0  0  0  0  0  0  0  0
   -0.2138    1.6627    0.4058 H   0  0  0  0  0  0  0  0  0  0  0  0
   -0.7423   -0.5341   -0.7097 H   0  0  0  0  0  0  0  0  0  0  0  0
   -1.0182   -1.2582    0.8722 H   0  0  0  0  0  0  0  0  0  0  0  0
   -3.1197   -0.5504   -0.3265 H   0  0  0  0  0  0  0  0  0  0  0  0
   -2.5813    1.1113   -0.3041 H   0  0  0  0  0  0  0  0  0  0  0  0
   -3.7876    1.7943    2.9862 H   0  0  0  0  0  0  0  0  0  0  0  0
   -4.3105    2.0279    1.2949 H   0  0  0  0  0  0  0  0  0  0  0  0
   -2.6440    2.3850    1.7920 H   0  0  0  0  0  0  0  0  0  0  0  0
   -5.0249   -2.2107   -0.1731 H   0  0  0  0  0  0  0  0  0  0  0  0
   -7.1278   -2.0211   -1.3791 H   0  0  0  0  0  0  0  0  0  0  0  0
  -10.5314    1.1755   -1.7125 H   0  0  0  0  0  0  0  0  0  0  0  0
   -9.6445    1.7188   -0.2912 H   0  0  0  0  0  0  0  0  0  0  0  0
   -8.7786    1.4117   -1.8009 H   0  0  0  0  0  0  0  0  0  0  0  0
  -10.3735   -1.9024    0.5124 H   0  0  0  0  0  0  0  0  0  0  0  0
  -10.5827   -0.2419    1.0799 H   0  0  0  0  0  0  0  0  0  0  0  0
  -11.4867   -0.8073   -0.3227 H   0  0  0  0  0  0  0  0  0  0  0  0
   -8.7131   -0.9886   -2.7748 H   0  0  0  0  0  0  0  0  0  0  0  0
   -9.3798   -2.3383   -1.8329 H   0  0  0  0  0  0  0  0  0  0  0  0
  -10.4544   -1.1260   -2.5284 H   0  0  0  0  0  0  0  0  0  0  0  0
   -8.5431    0.8241    1.5651 H   0  0  0  0  0  0  0  0  0  0  0  0
   -6.4216    0.6208    2.7643 H   0  0  0  0  0  0  0  0  0  0  0  0
  1  2  1  0
  2  3  2  0
  3  4  1  0
  4  5  1  0
  5  6  2  0
  5  7  2  0
  5  8  1  0
  8  9  1  0
  8 10  1  0
  4 11  2  0
 11 12  1  0
 12 13  2  0
 13 14  1  0
 14 15  1  0
 15 16  1  0
 16 17  1  0
 17 18  1  0
 18 19  1  0
 19 20  1  0
 20 21  1  0
 21 22  1  0
 21 23  1  0
 23 24  2  0
 23 25  2  0
 23 26  1  0
 26 27  2  0
 27 28  1  0
 28 29  2  0
 29 30  1  0
 30 31  1  0
 30 32  1  0
 30 33  1  0
 29 34  1  0
 34 35  2  0
 13  2  1  0
 35 26  1  0
  1 36  1  0
  1 37  1  0
  1 38  1  0
  3 39  1  0
  9 40  1  0
  9 41  1  0
  9 42  1  0
 10 43  1  0
 10 44  1  0
 10 45  1  0
 11 46  1  0
 12 47  1  0
 15 48  1  0
 15 49  1  0
 16 50  1  0
 16 51  1  0
 17 52  1  0
 17 53  1  0
 18 54  1  0
 18 55  1  0
 19 56  1  0
 19 57  1  0
 20 58  1  0
 20 59  1  0
 22 60  1  0
 22 61  1  0
 22 62  1  0
 27 63  1  0
 28 64  1  0
 31 65  1  0
 31 66  1  0
 31 67  1  0
 32 68  1  0
 32 69  1  0
 32 70  1  0
 33 71  1  0
 33 72  1  0
 33 73  1  0
 34 74  1  0
 35 75  1  0
M  END
$$$$
