AGAN 245-df-2-CN
     RDKit          3D

 58 61  0  0  0  0  0  0  0  0999 V2000
   -5.2509   -2.2325   -3.4291 C   0  0  0  0  0  0  0  0  0  0  0  0
   -4.0779   -1.9711   -2.5325 C   0  0  0  0  0  0  0  0  0  0  0  0
   -3.1298   -2.9667   -2.2948 C   0  0  0  0  0  0  0  0  0  0  0  0
   -2.0519   -2.7351   -1.4340 C   0  0  0  0  0  0  0  0  0  0  0  0
   -1.9024   -1.5057   -0.7846 C   0  0  0  0  0  0  0  0  0  0  0  0
   -0.8322   -1.2407    0.1079 N   0  0  0  0  0  0  0  0  0  0  0  0
    0.2807   -2.0169    0.3598 C   0  0  0  0  0  0  0  0  0  0  0  0
    0.5643   -3.0747   -0.1858 O   0  0  0  0  0  0  0  0  0  0  0  0
    1.2367   -1.4873    1.3784 C   0  0  0  0  0  0  0  0  0  0  0  0
    1.3793   -0.1018    1.5470 C   0  0  0  0  0  0  0  0  0  0  0  0
    0.6027    0.7449    0.8541 F   0  0  0  0  0  0  0  0  0  0  0  0
    2.3249    0.4544    2.4164 C   0  0  0  0  0  0  0  0  0  0  0  0
    2.4646    1.9493    2.5276 C   0  0  0  0  0  0  0  0  0  0  0  0
    3.7547    2.5593    1.4535 S   0  0  0  0  0  6  0  0  0  0  0  0
    3.6977    4.0106    1.4819 O   0  0  0  0  0  0  0  0  0  0  0  0
    4.9955    1.8791    1.7813 O   0  0  0  0  0  0  0  0  0  0  0  0
    3.2761    2.0604   -0.1842 C   0  0  0  0  0  0  0  0  0  0  0  0
    2.3390    2.8246   -0.8861 C   0  0  0  0  0  0  0  0  0  0  0  0
    1.9411    2.4177   -2.1591 C   0  0  0  0  0  0  0  0  0  0  0  0
    2.4836    1.2625   -2.7248 C   0  0  0  0  0  0  0  0  0  0  0  0
    3.4376    0.5180   -2.0287 C   0  0  0  0  0  0  0  0  0  0  0  0
    3.8460    0.9200   -0.7577 C   0  0  0  0  0  0  0  0  0  0  0  0
    3.1436   -0.4070    3.1477 C   0  0  0  0  0  0  0  0  0  0  0  0
    3.0027   -1.7896    3.0134 C   0  0  0  0  0  0  0  0  0  0  0  0
    2.0466   -2.3521    2.1402 C   0  0  0  0  0  0  0  0  0  0  0  0
    1.9222   -3.8592    2.0731 C   0  0  0  0  0  0  0  0  0  0  0  0
    2.5340   -4.4624    3.1401 F   0  0  0  0  0  0  0  0  0  0  0  0
    0.6381   -4.3041    2.1262 F   0  0  0  0  0  0  0  0  0  0  0  0
    2.5127   -4.4082    0.9805 F   0  0  0  0  0  0  0  0  0  0  0  0
   -2.8657   -0.4898   -1.0050 C   0  0  0  0  0  0  0  0  0  0  0  0
   -3.9448   -0.7438   -1.8746 C   0  0  0  0  0  0  0  0  0  0  0  0
   -2.7751    0.8347   -0.3699 C   0  0  0  0  0  0  0  0  0  0  0  0
   -3.4771    1.1133    0.8121 C   0  0  0  0  0  0  0  0  0  0  0  0
   -3.3696    2.3633    1.4255 C   0  0  0  0  0  0  0  0  0  0  0  0
   -2.5606    3.3495    0.8636 C   0  0  0  0  0  0  0  0  0  0  0  0
   -1.8599    3.0888   -0.3122 C   0  0  0  0  0  0  0  0  0  0  0  0
   -1.9671    1.8392   -0.9255 C   0  0  0  0  0  0  0  0  0  0  0  0
   -5.5739   -1.3124   -3.9274 H   0  0  0  0  0  0  0  0  0  0  0  0
   -4.9915   -2.9518   -4.2130 H   0  0  0  0  0  0  0  0  0  0  0  0
   -6.0863   -2.6314   -2.8456 H   0  0  0  0  0  0  0  0  0  0  0  0
   -3.2184   -3.9387   -2.7759 H   0  0  0  0  0  0  0  0  0  0  0  0
   -1.3501   -3.5492   -1.2815 H   0  0  0  0  0  0  0  0  0  0  0  0
   -0.8674   -0.3285    0.5512 H   0  0  0  0  0  0  0  0  0  0  0  0
    1.5345    2.4675    2.2729 H   0  0  0  0  0  0  0  0  0  0  0  0
    2.7302    2.2363    3.5507 H   0  0  0  0  0  0  0  0  0  0  0  0
    1.9170    3.7287   -0.4539 H   0  0  0  0  0  0  0  0  0  0  0  0
    1.2106    3.0006   -2.7148 H   0  0  0  0  0  0  0  0  0  0  0  0
    2.1695    0.9450   -3.7168 H   0  0  0  0  0  0  0  0  0  0  0  0
    3.8637   -0.3750   -2.4809 H   0  0  0  0  0  0  0  0  0  0  0  0
    4.5955    0.3379   -0.2259 H   0  0  0  0  0  0  0  0  0  0  0  0
    3.9050   -0.0138    3.8219 H   0  0  0  0  0  0  0  0  0  0  0  0
    3.6533   -2.4393    3.6019 H   0  0  0  0  0  0  0  0  0  0  0  0
   -4.6873    0.0356   -2.0422 H   0  0  0  0  0  0  0  0  0  0  0  0
   -4.1120    0.3516    1.2608 H   0  0  0  0  0  0  0  0  0  0  0  0
   -3.9219    2.5680    2.3392 H   0  0  0  0  0  0  0  0  0  0  0  0
   -2.4827    4.3244    1.3385 H   0  0  0  0  0  0  0  0  0  0  0  0
   -1.2340    3.8589   -0.7553 H   0  0  0  0  0  0  0  0  0  0  0  0
   -1.4131    1.6448   -1.8423 H   0  0  0  0  0  0  0  0  0  0  0  0
  1  2  1  0
  2  3  2  0
  3  4  1  0
  4  5  2  0
  5  6  1  0
  6  7  1  0
  7  8  2  0
  7  9  1  0
  9 10  2  0
 10 11  1  0
 10 12  1  0
 12 13  1  0
 13 14  1  0
 14 15  2  0
 14 16  2  0
 14 17  1  0
 17 18  2  0
 18 19  1  0
 19 20  2  0
 20 21  1  0
 21 22  2  0
 12 23  2  0
 23 24  1  0
 24 25  2  0
 25 26  1  0
 26 27  1  0
 26 28  1  0
 26 29  1  0
  5 30  1  0
 30 31  2  0
 30 32  1  0
 32 33  2  0
 33 34  1  0
 34 35  2  0
 35 36  1  0
 36 37  2  0
 31  2  1  0
 37 32  1  0
 25  9  1  0
 22 17  1  0
  1 38  1  0
  1 39  1  0
  1 40  1  0
  3 41  1  0
  4 42  1  0
  6 43  1  0
 13 44  1  0
 13 45  1  0
 18 46  1  0
 19 47  1  0
 20 48  1  0
 21 49  1  0
 22 50  1  0
 23 51  1  0
 24 52  1  0
 31 53  1  0
 33 54  1  0
 34 55  1  0
 35 56  1  0
 36 57  1  0
 37 58  1  0
M  END
$$$$
