AMG650
     RDKit          3D

 73 77  0  0  0  0  0  0  0  0999 V2000
    5.8932    0.9222   -2.6671 C   0  0  0  0  0  0  0  0  0  0  0  0
    4.7135    0.3224   -1.9640 C   0  0  0  0  0  0  0  0  0  0  0  0
    3.4538    0.8372   -2.1616 C   0  0  0  0  0  0  0  0  0  0  0  0
    2.4414    0.2179   -1.4747 C   0  0  0  0  0  0  0  0  0  0  0  0
    2.6528   -0.8277   -0.6560 N   0  0  0  0  0  0  0  0  0  0  0  0
    3.9048   -1.2813   -0.5119 C   0  0  0  0  0  0  0  0  0  0  0  0
    4.9458   -0.7238   -1.1464 N   0  0  0  0  0  0  0  0  0  0  0  0
    4.1321   -2.3661    0.3320 N   0  0  0  0  0  0  0  0  0  0  0  0
    5.5048   -2.5560    0.8007 C   0  0  0  0  0  0  0  0  0  0  0  0
    5.7709   -1.6581    2.0012 C   0  0  0  0  0  0  0  0  0  0  0  0
    4.7051   -1.8904    3.0553 C   0  0  0  0  0  0  0  0  0  0  0  0
    3.2841   -1.7582    2.5407 C   0  0  0  0  0  0  0  0  0  0  0  0
    3.0991   -2.6551    1.3252 C   0  0  0  0  0  0  0  0  0  0  0  0
    4.8910   -1.0199    4.0821 F   0  0  0  0  0  0  0  0  0  0  0  0
    4.8686   -3.1333    3.5866 F   0  0  0  0  0  0  0  0  0  0  0  0
    1.1049    0.6041   -1.5488 N   0  0  0  0  0  0  0  0  0  0  0  0
    0.5209    1.6047   -2.2800 C   0  0  0  0  0  0  0  0  0  0  0  0
    1.1205    2.3753   -3.0241 O   0  0  0  0  0  0  0  0  0  0  0  0
   -0.9729    1.7455   -2.1227 C   0  0  0  0  0  0  0  0  0  0  0  0
   -1.7917    0.8584   -1.3773 C   0  0  0  0  0  0  0  0  0  0  0  0
   -3.1770    1.1196   -1.3081 C   0  0  0  0  0  0  0  0  0  0  0  0
   -3.7417    2.2280   -1.9430 C   0  0  0  0  0  0  0  0  0  0  0  0
   -2.9359    3.0908   -2.6740 C   0  0  0  0  0  0  0  0  0  0  0  0
   -1.5635    2.8510   -2.7638 C   0  0  0  0  0  0  0  0  0  0  0  0
   -5.1421    2.4519   -1.8189 N   0  0  0  0  0  0  0  0  0  0  0  0
   -5.7031    3.8502   -1.0627 S   0  0  0  0  0  6  0  0  0  0  0  0
   -7.1375    3.6809   -0.9593 O   0  0  0  0  0  0  0  0  0  0  0  0
   -5.1317    5.0142   -1.7016 O   0  0  0  0  0  0  0  0  0  0  0  0
   -5.0216    3.7000    0.5774 C   0  0  0  0  0  0  0  0  0  0  0  0
   -5.5065    4.8393    1.4474 C   0  0  0  0  0  0  0  0  0  0  0  0
   -4.9719    4.6756    2.7588 O   0  0  0  0  0  0  0  0  0  0  0  0
   -1.2544   -0.2830   -0.7326 N   0  0  0  0  0  0  0  0  0  0  0  0
   -1.4807   -0.3467    0.7350 C   0  0  0  0  0  0  0  0  0  0  0  0
   -2.2794   -1.5838    1.1559 C   0  0  0  0  0  0  0  0  0  0  0  0
   -1.6299   -2.8589    0.6502 C   0  0  0  0  0  0  0  0  0  0  0  0
   -2.2751   -4.1750    1.0362 C   0  0  0  0  0  0  0  0  0  0  0  0
   -0.9661   -3.7830    1.6522 C   0  0  0  0  0  0  0  0  0  0  0  0
   -0.9880   -2.7393   -0.7226 C   0  0  0  0  0  0  0  0  0  0  0  0
   -1.5365   -1.5306   -1.4873 C   0  0  0  0  0  0  0  0  0  0  0  0
    6.0071    1.9738   -2.3860 H   0  0  0  0  0  0  0  0  0  0  0  0
    5.7641    0.8512   -3.7516 H   0  0  0  0  0  0  0  0  0  0  0  0
    6.8154    0.3965   -2.3989 H   0  0  0  0  0  0  0  0  0  0  0  0
    3.2954    1.6770   -2.8220 H   0  0  0  0  0  0  0  0  0  0  0  0
    6.2513   -2.3917    0.0147 H   0  0  0  0  0  0  0  0  0  0  0  0
    5.6269   -3.6057    1.0987 H   0  0  0  0  0  0  0  0  0  0  0  0
    6.7603   -1.8795    2.4163 H   0  0  0  0  0  0  0  0  0  0  0  0
    5.7766   -0.6019    1.7074 H   0  0  0  0  0  0  0  0  0  0  0  0
    3.0760   -0.7111    2.2915 H   0  0  0  0  0  0  0  0  0  0  0  0
    2.5750   -2.0470    3.3243 H   0  0  0  0  0  0  0  0  0  0  0  0
    3.1939   -3.7056    1.6301 H   0  0  0  0  0  0  0  0  0  0  0  0
    2.0836   -2.5629    0.9239 H   0  0  0  0  0  0  0  0  0  0  0  0
    0.4828    0.0290   -0.9856 H   0  0  0  0  0  0  0  0  0  0  0  0
   -3.8172    0.4417   -0.7508 H   0  0  0  0  0  0  0  0  0  0  0  0
   -3.3595    3.9484   -3.1922 H   0  0  0  0  0  0  0  0  0  0  0  0
   -0.9510    3.5413   -3.3429 H   0  0  0  0  0  0  0  0  0  0  0  0
   -5.7357    1.6445   -1.6299 H   0  0  0  0  0  0  0  0  0  0  0  0
   -3.9298    3.7133    0.5106 H   0  0  0  0  0  0  0  0  0  0  0  0
   -5.3322    2.7363    0.9934 H   0  0  0  0  0  0  0  0  0  0  0  0
   -5.1746    5.8060    1.0549 H   0  0  0  0  0  0  0  0  0  0  0  0
   -6.5986    4.8498    1.5200 H   0  0  0  0  0  0  0  0  0  0  0  0
   -5.2765    5.4354    3.2874 H   0  0  0  0  0  0  0  0  0  0  0  0
   -0.4919   -0.3868    1.2093 H   0  0  0  0  0  0  0  0  0  0  0  0
   -1.9679    0.5586    1.1182 H   0  0  0  0  0  0  0  0  0  0  0  0
   -2.3719   -1.5989    2.2483 H   0  0  0  0  0  0  0  0  0  0  0  0
   -3.2979   -1.5220    0.7532 H   0  0  0  0  0  0  0  0  0  0  0  0
   -2.2721   -4.9933    0.3240 H   0  0  0  0  0  0  0  0  0  0  0  0
   -3.1559   -4.1589    1.6696 H   0  0  0  0  0  0  0  0  0  0  0  0
   -0.0821   -4.3338    1.3472 H   0  0  0  0  0  0  0  0  0  0  0  0
   -0.9622   -3.5077    2.7012 H   0  0  0  0  0  0  0  0  0  0  0  0
    0.0965   -2.6294   -0.6024 H   0  0  0  0  0  0  0  0  0  0  0  0
   -1.1595   -3.6475   -1.3116 H   0  0  0  0  0  0  0  0  0  0  0  0
   -2.6150   -1.6570   -1.6491 H   0  0  0  0  0  0  0  0  0  0  0  0
   -1.0538   -1.4810   -2.4710 H   0  0  0  0  0  0  0  0  0  0  0  0
  1  2  1  0
  2  3  2  0
  3  4  1  0
  4  5  2  0
  5  6  1  0
  6  7  2  0
  6  8  1  0
  8  9  1  0
  9 10  1  0
 10 11  1  0
 11 12  1  0
 12 13  1  0
 11 14  1  0
 11 15  1  0
  4 16  1  0
 16 17  1  0
 17 18  2  0
 17 19  1  0
 19 20  1  0
 20 21  2  0
 21 22  1  0
 22 23  2  0
 23 24  1  0
 22 25  1  0
 25 26  1  0
 26 27  2  0
 26 28  2  0
 26 29  1  0
 29 30  1  0
 30 31  1  0
 20 32  1  0
 32 33  1  0
 33 34  1  0
 34 35  1  0
 35 36  1  0
 36 37  1  0
 35 38  1  0
 38 39  1  0
  7  2  1  0
 13  8  1  0
 24 19  2  0
 39 32  1  0
 37 35  1  0
  1 40  1  0
  1 41  1  0
  1 42  1  0
  3 43  1  0
  9 44  1  0
  9 45  1  0
 10 46  1  0
 10 47  1  0
 12 48  1  0
 12 49  1  0
 13 50  1  0
 13 51  1  0
 16 52  1  0
 21 53  1  0
 23 54  1  0
 24 55  1  0
 25 56  1  0
 29 57  1  0
 29 58  1  0
 30 59  1  0
 30 60  1  0
 31 61  1  0
 33 62  1  0
 33 63  1  0
 34 64  1  0
 34 65  1  0
 36 66  1  0
 36 67  1  0
 37 68  1  0
 37 69  1  0
 38 70  1  0
 38 71  1  0
 39 72  1  0
 39 73  1  0
M  END
$$$$
