BB_39
     RDKit          3D

 62 66  0  0  0  0  0  0  0  0999 V2000
    0.4543   -1.3374    0.4240 C   0  0  0  0  0  0  0  0  0  0  0  0
    1.5464   -2.2046    0.6057 C   0  0  0  0  0  0  0  0  0  0  0  0
    2.8109   -1.6820    0.8260 C   0  0  0  0  0  0  0  0  0  0  0  0
    3.0313   -0.3120    0.8872 C   0  0  0  0  0  0  0  0  0  0  0  0
    1.9799    0.5718    0.6958 C   0  0  0  0  0  0  0  0  0  0  0  0
    0.6855    0.0851    0.4549 C   0  0  0  0  0  0  0  0  0  0  0  0
   -0.3897    0.9915    0.2303 N   0  0  0  0  0  0  0  0  0  0  0  0
   -0.1917    1.8893   -0.9390 C   0  0  0  0  0  0  0  0  0  0  0  0
   -0.0991    3.3661   -0.5427 C   0  0  0  0  0  0  0  0  0  0  0  0
   -1.3073    3.7987    0.2691 C   0  0  0  0  0  0  0  0  0  0  0  0
   -1.8654    2.7269    1.1907 C   0  0  0  0  0  0  0  0  0  0  0  0
   -0.8141    1.6538    1.4893 C   0  0  0  0  0  0  0  0  0  0  0  0
   -2.2936    4.7657   -0.3554 C   0  0  0  0  0  0  0  0  0  0  0  0
   -1.3661    5.2448    0.7202 C   0  0  0  0  0  0  0  0  0  0  0  0
    4.3580    0.1800    1.0716 N   0  0  0  0  0  0  0  0  0  0  0  0
    5.2481    0.5288   -0.3292 S   0  0  0  0  0  6  0  0  0  0  0  0
    6.2024   -0.9604   -0.5256 C   0  0  0  0  0  0  0  0  0  0  0  0
    7.1446   -0.8193   -1.7015 C   0  0  0  0  0  0  0  0  0  0  0  0
    7.9035   -2.0179   -1.8358 O   0  0  0  0  0  0  0  0  0  0  0  0
    6.1512    1.5931    0.0565 O   0  0  0  0  0  0  0  0  0  0  0  0
    4.3524    0.6844   -1.4536 O   0  0  0  0  0  0  0  0  0  0  0  0
    1.4470   -3.5347    0.5761 N   0  0  0  0  0  0  0  0  0  0  0  0
    0.2314   -4.0404    0.3581 C   0  0  0  0  0  0  0  0  0  0  0  0
   -0.8876   -3.3424    0.1757 N   0  0  0  0  0  0  0  0  0  0  0  0
   -0.7851   -1.9993    0.2044 C   0  0  0  0  0  0  0  0  0  0  0  0
   -1.9518   -1.2130    0.0481 N   0  0  0  0  0  0  0  0  0  0  0  0
   -3.3032   -1.5220   -0.1650 C   0  0  0  0  0  0  0  0  0  0  0  0
   -4.1624   -0.4992   -0.5971 C   0  0  0  0  0  0  0  0  0  0  0  0
   -5.5212   -0.7348   -0.8197 C   0  0  0  0  0  0  0  0  0  0  0  0
   -6.0517   -2.0028   -0.6014 C   0  0  0  0  0  0  0  0  0  0  0  0
   -5.2286   -3.0355   -0.1458 C   0  0  0  0  0  0  0  0  0  0  0  0
   -3.8604   -2.7853    0.0588 C   0  0  0  0  0  0  0  0  0  0  0  0
   -5.7813   -4.4134    0.0689 C   0  0  0  0  0  0  0  0  0  0  0  0
    3.6406   -2.3704    0.9666 H   0  0  0  0  0  0  0  0  0  0  0  0
    2.1671    1.6408    0.7106 H   0  0  0  0  0  0  0  0  0  0  0  0
   -1.0625    1.7542   -1.5929 H   0  0  0  0  0  0  0  0  0  0  0  0
    0.6844    1.6059   -1.5358 H   0  0  0  0  0  0  0  0  0  0  0  0
    0.0010    3.9762   -1.4483 H   0  0  0  0  0  0  0  0  0  0  0  0
    0.8053    3.5356    0.0539 H   0  0  0  0  0  0  0  0  0  0  0  0
   -2.2109    3.1665    2.1333 H   0  0  0  0  0  0  0  0  0  0  0  0
   -2.7351    2.2617    0.7111 H   0  0  0  0  0  0  0  0  0  0  0  0
   -1.2460    0.9067    2.1660 H   0  0  0  0  0  0  0  0  0  0  0  0
    0.0391    2.1162    2.0027 H   0  0  0  0  0  0  0  0  0  0  0  0
   -2.1194    5.1151   -1.3674 H   0  0  0  0  0  0  0  0  0  0  0  0
   -3.3458    4.6692   -0.1083 H   0  0  0  0  0  0  0  0  0  0  0  0
   -0.5616    5.9135    0.4320 H   0  0  0  0  0  0  0  0  0  0  0  0
   -1.7945    5.4786    1.6888 H   0  0  0  0  0  0  0  0  0  0  0  0
    4.4463    0.9656    1.7203 H   0  0  0  0  0  0  0  0  0  0  0  0
    6.7597   -1.1397    0.3991 H   0  0  0  0  0  0  0  0  0  0  0  0
    5.5161   -1.7971   -0.6841 H   0  0  0  0  0  0  0  0  0  0  0  0
    7.8395    0.0141   -1.5563 H   0  0  0  0  0  0  0  0  0  0  0  0
    6.5932   -0.6527   -2.6326 H   0  0  0  0  0  0  0  0  0  0  0  0
    8.4884   -1.9027   -2.6059 H   0  0  0  0  0  0  0  0  0  0  0  0
    0.1457   -5.1209    0.3290 H   0  0  0  0  0  0  0  0  0  0  0  0
   -1.6881   -0.2511   -0.1720 H   0  0  0  0  0  0  0  0  0  0  0  0
   -3.7721    0.4989   -0.7778 H   0  0  0  0  0  0  0  0  0  0  0  0
   -6.1621    0.0708   -1.1666 H   0  0  0  0  0  0  0  0  0  0  0  0
   -7.1085   -2.1800   -0.7846 H   0  0  0  0  0  0  0  0  0  0  0  0
   -3.2340   -3.5992    0.4110 H   0  0  0  0  0  0  0  0  0  0  0  0
   -5.6591   -5.0111   -0.8395 H   0  0  0  0  0  0  0  0  0  0  0  0
   -5.2680   -4.9146    0.8963 H   0  0  0  0  0  0  0  0  0  0  0  0
   -6.8455   -4.3736    0.3244 H   0  0  0  0  0  0  0  0  0  0  0  0
  1  2  1  0
  2  3  2  0
  3  4  1  0
  4  5  2  0
  5  6  1  0
  6  7  1  0
  7  8  1  0
  8  9  1  0
  9 10  1  0
 10 11  1  0
 11 12  1  0
 10 13  1  0
 13 14  1  0
  4 15  1  0
 15 16  1  0
 16 17  1  0
 17 18  1  0
 18 19  1  0
 16 20  2  0
 16 21  2  0
  2 22  1  0
 22 23  2  0
 23 24  1  0
 24 25  2  0
 25 26  1  0
 26 27  1  0
 27 28  2  0
 28 29  1  0
 29 30  2  0
 30 31  1  0
 31 32  2  0
 31 33  1  0
  6  1  2  0
 12  7  1  0
 32 27  1  0
 25  1  1  0
 14 10  1  0
  3 34  1  0
  5 35  1  0
  8 36  1  0
  8 37  1  0
  9 38  1  0
  9 39  1  0
 11 40  1  0
 11 41  1  0
 12 42  1  0
 12 43  1  0
 13 44  1  0
 13 45  1  0
 14 46  1  0
 14 47  1  0
 15 48  1  0
 17 49  1  0
 17 50  1  0
 18 51  1  0
 18 52  1  0
 19 53  1  0
 23 54  1  0
 26 55  1  0
 28 56  1  0
 29 57  1  0
 30 58  1  0
 32 59  1  0
 33 60  1  0
 33 61  1  0
 33 62  1  0
M  END
$$$$
