BB_37
     RDKit          3D

 77 82  0  0  0  0  0  0  0  0999 V2000
    1.5226    0.8702   -0.9812 C   0  0  0  0  0  0  0  0  0  0  0  0
    2.1412    2.0918   -1.3041 C   0  0  0  0  0  0  0  0  0  0  0  0
    3.5232    2.1756   -1.3434 C   0  0  0  0  0  0  0  0  0  0  0  0
    4.3261    1.0724   -1.0866 C   0  0  0  0  0  0  0  0  0  0  0  0
    3.7511   -0.1479   -0.7636 C   0  0  0  0  0  0  0  0  0  0  0  0
    2.3537   -0.2779   -0.7099 C   0  0  0  0  0  0  0  0  0  0  0  0
    1.7511   -1.5249   -0.3533 N   0  0  0  0  0  0  0  0  0  0  0  0
    2.2224   -2.6646   -1.1796 C   0  0  0  0  0  0  0  0  0  0  0  0
    1.4048   -3.9170   -0.8388 C   0  0  0  0  0  0  0  0  0  0  0  0
    1.4667   -4.2093    0.6482 C   0  0  0  0  0  0  0  0  0  0  0  0
    1.1075   -3.0144    1.5116 C   0  0  0  0  0  0  0  0  0  0  0  0
    1.9218   -1.7788    1.1054 C   0  0  0  0  0  0  0  0  0  0  0  0
    2.4979   -5.1936    1.1570 C   0  0  0  0  0  0  0  0  0  0  0  0
    1.0459   -5.5820    1.1227 C   0  0  0  0  0  0  0  0  0  0  0  0
    5.7458    1.2223   -1.0852 N   0  0  0  0  0  0  0  0  0  0  0  0
    6.4798    1.5528    0.4085 S   0  0  0  0  0  6  0  0  0  0  0  0
    6.6080    3.3281    0.3558 C   0  0  0  0  0  0  0  0  0  0  0  0
    7.3284    3.8333    1.5873 C   0  0  0  0  0  0  0  0  0  0  0  0
    7.4629    5.2512    1.5234 O   0  0  0  0  0  0  0  0  0  0  0  0
    5.6006    1.1549    1.4841 O   0  0  0  0  0  0  0  0  0  0  0  0
    7.8169    1.0087    0.2935 O   0  0  0  0  0  0  0  0  0  0  0  0
    1.4718    3.2109   -1.5841 N   0  0  0  0  0  0  0  0  0  0  0  0
    0.1404    3.1371   -1.5473 C   0  0  0  0  0  0  0  0  0  0  0  0
   -0.5769    2.0548   -1.2545 N   0  0  0  0  0  0  0  0  0  0  0  0
    0.1015    0.9251   -0.9691 C   0  0  0  0  0  0  0  0  0  0  0  0
   -0.6210   -0.2444   -0.6381 N   0  0  0  0  0  0  0  0  0  0  0  0
   -1.9808   -0.5182   -0.4250 C   0  0  0  0  0  0  0  0  0  0  0  0
   -2.3937   -1.8552   -0.3794 C   0  0  0  0  0  0  0  0  0  0  0  0
   -3.7324   -2.1980   -0.1707 C   0  0  0  0  0  0  0  0  0  0  0  0
   -4.6820   -1.1766   -0.0343 C   0  0  0  0  0  0  0  0  0  0  0  0
   -4.3271    0.1804   -0.0737 C   0  0  0  0  0  0  0  0  0  0  0  0
   -2.9624    0.4710   -0.2701 C   0  0  0  0  0  0  0  0  0  0  0  0
   -5.2794    1.1860    0.0665 N   0  0  0  0  0  0  0  0  0  0  0  0
   -5.0147    2.5360   -0.4434 C   0  0  0  0  0  0  0  0  0  0  0  0
   -6.3273    3.2177   -0.7859 C   0  0  0  0  0  0  0  0  0  0  0  0
   -7.2057    3.3036    0.4442 C   0  0  0  0  0  0  0  0  0  0  0  0
   -6.9852    2.2183    1.4763 C   0  0  0  0  0  0  0  0  0  0  0  0
   -6.5252    0.9400    0.7990 C   0  0  0  0  0  0  0  0  0  0  0  0
   -7.0233    4.5120    1.0446 F   0  0  0  0  0  0  0  0  0  0  0  0
   -8.5078    3.2860    0.0458 F   0  0  0  0  0  0  0  0  0  0  0  0
   -4.1567   -3.6362   -0.1651 C   0  0  0  0  0  0  0  0  0  0  0  0
    3.9790    3.1303   -1.5938 H   0  0  0  0  0  0  0  0  0  0  0  0
    4.3920   -0.9883   -0.5156 H   0  0  0  0  0  0  0  0  0  0  0  0
    2.0930   -2.4342   -2.2439 H   0  0  0  0  0  0  0  0  0  0  0  0
    3.2839   -2.8742   -0.9995 H   0  0  0  0  0  0  0  0  0  0  0  0
    1.7776   -4.7651   -1.4252 H   0  0  0  0  0  0  0  0  0  0  0  0
    0.3579   -3.7646   -1.1257 H   0  0  0  0  0  0  0  0  0  0  0  0
    1.2768   -3.2274    2.5737 H   0  0  0  0  0  0  0  0  0  0  0  0
    0.0377   -2.8061    1.3938 H   0  0  0  0  0  0  0  0  0  0  0  0
    1.5681   -0.9178    1.6861 H   0  0  0  0  0  0  0  0  0  0  0  0
    2.9801   -1.9424    1.3472 H   0  0  0  0  0  0  0  0  0  0  0  0
    3.1642   -5.6708    0.4467 H   0  0  0  0  0  0  0  0  0  0  0  0
    2.9512   -5.0227    2.1277 H   0  0  0  0  0  0  0  0  0  0  0  0
    0.5215   -5.6676    2.0686 H   0  0  0  0  0  0  0  0  0  0  0  0
    0.7343   -6.3155    0.3869 H   0  0  0  0  0  0  0  0  0  0  0  0
    6.2625    0.4668   -1.5419 H   0  0  0  0  0  0  0  0  0  0  0  0
    7.1500    3.6082   -0.5528 H   0  0  0  0  0  0  0  0  0  0  0  0
    5.6009    3.7511    0.3026 H   0  0  0  0  0  0  0  0  0  0  0  0
    8.3262    3.3939    1.6899 H   0  0  0  0  0  0  0  0  0  0  0  0
    6.7650    3.5918    2.4942 H   0  0  0  0  0  0  0  0  0  0  0  0
    8.1902    5.4563    0.9101 H   0  0  0  0  0  0  0  0  0  0  0  0
   -0.4093    4.0432   -1.7763 H   0  0  0  0  0  0  0  0  0  0  0  0
    0.0042   -1.0518   -0.6109 H   0  0  0  0  0  0  0  0  0  0  0  0
   -1.6615   -2.6465   -0.5130 H   0  0  0  0  0  0  0  0  0  0  0  0
   -5.7251   -1.4600    0.0782 H   0  0  0  0  0  0  0  0  0  0  0  0
   -2.6452    1.5072   -0.2651 H   0  0  0  0  0  0  0  0  0  0  0  0
   -4.4595    3.1168    0.3032 H   0  0  0  0  0  0  0  0  0  0  0  0
   -4.4138    2.4993   -1.3604 H   0  0  0  0  0  0  0  0  0  0  0  0
   -6.8439    2.6508   -1.5706 H   0  0  0  0  0  0  0  0  0  0  0  0
   -6.1376    4.2200   -1.1852 H   0  0  0  0  0  0  0  0  0  0  0  0
   -6.2303    2.5452    2.2024 H   0  0  0  0  0  0  0  0  0  0  0  0
   -7.9098    2.0361    2.0350 H   0  0  0  0  0  0  0  0  0  0  0  0
   -6.3823    0.1855    1.5821 H   0  0  0  0  0  0  0  0  0  0  0  0
   -7.2930    0.5686    0.1096 H   0  0  0  0  0  0  0  0  0  0  0  0
   -3.3534   -4.2796    0.2092 H   0  0  0  0  0  0  0  0  0  0  0  0
   -4.4198   -3.9528   -1.1790 H   0  0  0  0  0  0  0  0  0  0  0  0
   -5.0222   -3.7854    0.4891 H   0  0  0  0  0  0  0  0  0  0  0  0
  1  2  1  0
  2  3  2  0
  3  4  1  0
  4  5  2  0
  5  6  1  0
  6  7  1  0
  7  8  1  0
  8  9  1  0
  9 10  1  0
 10 11  1  0
 11 12  1  0
 10 13  1  0
 13 14  1  0
  4 15  1  0
 15 16  1  0
 16 17  1  0
 17 18  1  0
 18 19  1  0
 16 20  2  0
 16 21  2  0
  2 22  1  0
 22 23  2  0
 23 24  1  0
 24 25  2  0
 25 26  1  0
 26 27  1  0
 27 28  2  0
 28 29  1  0
 29 30  2  0
 30 31  1  0
 31 32  2  0
 31 33  1  0
 33 34  1  0
 34 35  1  0
 35 36  1  0
 36 37  1  0
 37 38  1  0
 36 39  1  0
 36 40  1  0
 29 41  1  0
  6  1  2  0
 12  7  1  0
 32 27  1  0
 38 33  1  0
 25  1  1  0
 14 10  1  0
  3 42  1  0
  5 43  1  0
  8 44  1  0
  8 45  1  0
  9 46  1  0
  9 47  1  0
 11 48  1  0
 11 49  1  0
 12 50  1  0
 12 51  1  0
 13 52  1  0
 13 53  1  0
 14 54  1  0
 14 55  1  0
 15 56  1  0
 17 57  1  0
 17 58  1  0
 18 59  1  0
 18 60  1  0
 19 61  1  0
 23 62  1  0
 26 63  1  0
 28 64  1  0
 30 65  1  0
 32 66  1  0
 34 67  1  0
 34 68  1  0
 35 69  1  0
 35 70  1  0
 37 71  1  0
 37 72  1  0
 38 73  1  0
 38 74  1  0
 41 75  1  0
 41 76  1  0
 41 77  1  0
M  END
$$$$
