BB_30
     RDKit          3D

 66 69  0  0  0  0  0  0  0  0999 V2000
    4.6090   -1.8207    0.7421 C   0  0  0  0  0  0  0  0  0  0  0  0
    3.7217   -1.1997   -0.2465 N   0  0  0  0  0  0  0  0  0  0  0  0
    4.1250   -0.0588   -0.9586 C   0  0  0  0  0  0  0  0  0  0  0  0
    5.1855    0.8011   -0.3931 C   0  0  0  0  0  0  0  0  0  0  0  0
    6.3610    1.0014   -1.1199 C   0  0  0  0  0  0  0  0  0  0  0  0
    7.3561    1.8336   -0.6045 C   0  0  0  0  0  0  0  0  0  0  0  0
    7.1697    2.4887    0.6212 C   0  0  0  0  0  0  0  0  0  0  0  0
    8.2516    3.3631    1.1849 C   0  0  0  0  0  0  0  0  0  0  0  0
    5.9800    2.2875    1.3354 C   0  0  0  0  0  0  0  0  0  0  0  0
    4.9820    1.4555    0.8258 C   0  0  0  0  0  0  0  0  0  0  0  0
    3.6569    0.3059   -2.0381 O   0  0  0  0  0  0  0  0  0  0  0  0
    2.5044   -1.9150   -0.5879 C   0  0  0  0  0  0  0  0  0  0  0  0
    2.4190   -3.3001   -0.3458 C   0  0  0  0  0  0  0  0  0  0  0  0
    1.2594   -4.0341   -0.6327 C   0  0  0  0  0  0  0  0  0  0  0  0
    0.1337   -3.4076   -1.1715 C   0  0  0  0  0  0  0  0  0  0  0  0
   -1.1301   -4.1792   -1.4540 C   0  0  0  0  0  0  0  0  0  0  0  0
   -1.8027   -3.7229   -2.5462 F   0  0  0  0  0  0  0  0  0  0  0  0
   -2.0111   -4.1214   -0.4178 F   0  0  0  0  0  0  0  0  0  0  0  0
   -0.9076   -5.5040   -1.6814 F   0  0  0  0  0  0  0  0  0  0  0  0
    0.1877   -2.0293   -1.3981 C   0  0  0  0  0  0  0  0  0  0  0  0
    1.3464   -1.2903   -1.1128 C   0  0  0  0  0  0  0  0  0  0  0  0
    1.2206    0.1246   -1.2680 N   0  0  0  0  0  0  0  0  0  0  0  0
    0.8235    1.0276    0.1025 S   0  0  0  0  0  6  0  0  0  0  0  0
   -0.9426    0.8458    0.1569 C   0  0  0  0  0  0  0  0  0  0  0  0
   -1.5256   -0.0180    1.0857 C   0  0  0  0  0  0  0  0  0  0  0  0
   -2.9134   -0.1667    1.1081 C   0  0  0  0  0  0  0  0  0  0  0  0
   -3.7270    0.5475    0.2129 C   0  0  0  0  0  0  0  0  0  0  0  0
   -5.2351    0.3665    0.2587 C   0  0  0  0  0  0  0  0  0  0  0  0
   -5.8245   -0.0473   -1.0976 C   0  0  0  0  0  0  0  0  0  0  0  0
   -7.3129   -0.3907   -0.9844 C   0  0  0  0  0  0  0  0  0  0  0  0
   -8.0410    0.3918    0.1102 C   0  0  0  0  0  0  0  0  0  0  0  0
   -7.3988    1.7489    0.3621 C   0  0  0  0  0  0  0  0  0  0  0  0
   -5.9410    1.6204    0.8146 C   0  0  0  0  0  0  0  0  0  0  0  0
   -3.1204    1.4274   -0.6991 C   0  0  0  0  0  0  0  0  0  0  0  0
   -1.7333    1.5801   -0.7285 C   0  0  0  0  0  0  0  0  0  0  0  0
    1.0992    2.4153   -0.2049 O   0  0  0  0  0  0  0  0  0  0  0  0
    1.3856    0.4093    1.2861 O   0  0  0  0  0  0  0  0  0  0  0  0
    5.1265   -2.6633    0.2720 H   0  0  0  0  0  0  0  0  0  0  0  0
    4.0252   -2.1586    1.6044 H   0  0  0  0  0  0  0  0  0  0  0  0
    5.3816   -1.1466    1.1121 H   0  0  0  0  0  0  0  0  0  0  0  0
    6.4995    0.5170   -2.0831 H   0  0  0  0  0  0  0  0  0  0  0  0
    8.2737    1.9792   -1.1708 H   0  0  0  0  0  0  0  0  0  0  0  0
    7.8261    4.1673    1.7944 H   0  0  0  0  0  0  0  0  0  0  0  0
    8.9275    2.7675    1.8060 H   0  0  0  0  0  0  0  0  0  0  0  0
    8.8299    3.8349    0.3835 H   0  0  0  0  0  0  0  0  0  0  0  0
    5.8183    2.7888    2.2876 H   0  0  0  0  0  0  0  0  0  0  0  0
    4.0517    1.3267    1.3749 H   0  0  0  0  0  0  0  0  0  0  0  0
    3.2615   -3.8583    0.0528 H   0  0  0  0  0  0  0  0  0  0  0  0
    1.2470   -5.1054   -0.4323 H   0  0  0  0  0  0  0  0  0  0  0  0
   -0.6879   -1.5173   -1.7972 H   0  0  0  0  0  0  0  0  0  0  0  0
    1.9965    0.5610   -1.7885 H   0  0  0  0  0  0  0  0  0  0  0  0
   -0.9124   -0.5812    1.7854 H   0  0  0  0  0  0  0  0  0  0  0  0
   -3.3574   -0.8473    1.8323 H   0  0  0  0  0  0  0  0  0  0  0  0
   -5.4487   -0.4597    0.9528 H   0  0  0  0  0  0  0  0  0  0  0  0
   -5.2853   -0.9078   -1.5130 H   0  0  0  0  0  0  0  0  0  0  0  0
   -5.7069    0.7668   -1.8245 H   0  0  0  0  0  0  0  0  0  0  0  0
   -7.4322   -1.4631   -0.7876 H   0  0  0  0  0  0  0  0  0  0  0  0
   -7.7903   -0.2042   -1.9541 H   0  0  0  0  0  0  0  0  0  0  0  0
   -8.0293   -0.1890    1.0412 H   0  0  0  0  0  0  0  0  0  0  0  0
   -9.0944    0.5150   -0.1656 H   0  0  0  0  0  0  0  0  0  0  0  0
   -7.9687    2.3044    1.1156 H   0  0  0  0  0  0  0  0  0  0  0  0
   -7.4405    2.3419   -0.5603 H   0  0  0  0  0  0  0  0  0  0  0  0
   -5.4158    2.5422    0.5354 H   0  0  0  0  0  0  0  0  0  0  0  0
   -5.9024    1.5812    1.9113 H   0  0  0  0  0  0  0  0  0  0  0  0
   -3.7259    2.0070   -1.3929 H   0  0  0  0  0  0  0  0  0  0  0  0
   -1.2779    2.2646   -1.4409 H   0  0  0  0  0  0  0  0  0  0  0  0
  1  2  1  0
  2  3  1  0
  3  4  1  0
  4  5  2  0
  5  6  1  0
  6  7  2  0
  7  8  1  0
  7  9  1  0
  9 10  2  0
  3 11  2  0
  2 12  1  0
 12 13  2  0
 13 14  1  0
 14 15  2  0
 15 16  1  0
 16 17  1  0
 16 18  1  0
 16 19  1  0
 15 20  1  0
 20 21  2  0
 21 22  1  0
 22 23  1  0
 23 24  1  0
 24 25  2  0
 25 26  1  0
 26 27  2  0
 27 28  1  0
 28 29  1  0
 29 30  1  0
 30 31  1  0
 31 32  1  0
 32 33  1  0
 27 34  1  0
 34 35  2  0
 23 36  2  0
 23 37  2  0
 10  4  1  0
 21 12  1  0
 35 24  1  0
 33 28  1  0
  1 38  1  0
  1 39  1  0
  1 40  1  0
  5 41  1  0
  6 42  1  0
  8 43  1  0
  8 44  1  0
  8 45  1  0
  9 46  1  0
 10 47  1  0
 13 48  1  0
 14 49  1  0
 20 50  1  0
 22 51  1  0
 25 52  1  0
 26 53  1  0
 28 54  1  0
 29 55  1  0
 29 56  1  0
 30 57  1  0
 30 58  1  0
 31 59  1  0
 31 60  1  0
 32 61  1  0
 32 62  1  0
 33 63  1  0
 33 64  1  0
 34 65  1  0
 35 66  1  0
M  END
$$$$
