BB_42
     RDKit          3D

 70 75  0  0  0  0  0  0  0  0999 V2000
   -0.9577    0.5780    1.1869 C   0  0  0  0  0  0  0  0  0  0  0  0
   -0.9082    1.7725    1.9385 C   0  0  0  0  0  0  0  0  0  0  0  0
   -2.0056    2.6303    2.0126 C   0  0  0  0  0  0  0  0  0  0  0  0
   -3.1779    2.2961    1.3502 C   0  0  0  0  0  0  0  0  0  0  0  0
   -3.2441    1.1250    0.5955 C   0  0  0  0  0  0  0  0  0  0  0  0
   -2.1484    0.2404    0.5014 C   0  0  0  0  0  0  0  0  0  0  0  0
   -2.3802   -0.9059   -0.2809 N   0  0  0  0  0  0  0  0  0  0  0  0
   -1.4761   -1.1119   -1.4256 C   0  0  0  0  0  0  0  0  0  0  0  0
   -2.0944   -2.1494   -2.3742 C   0  0  0  0  0  0  0  0  0  0  0  0
   -2.4057   -3.4327   -1.6251 C   0  0  0  0  0  0  0  0  0  0  0  0
   -3.2452   -3.2036   -0.3811 C   0  0  0  0  0  0  0  0  0  0  0  0
   -2.6115   -2.1285    0.5149 C   0  0  0  0  0  0  0  0  0  0  0  0
   -1.3751   -4.5411   -1.6163 C   0  0  0  0  0  0  0  0  0  0  0  0
   -2.6337   -4.6957   -2.4244 C   0  0  0  0  0  0  0  0  0  0  0  0
   -4.2952    3.1940    1.3801 N   0  0  0  0  0  0  0  0  0  0  0  0
   -4.2722    4.4103    0.1877 S   0  0  0  0  0  6  0  0  0  0  0  0
   -4.9423    5.7869    1.0991 C   0  0  0  0  0  0  0  0  0  0  0  0
   -3.9686    6.2889    2.1448 C   0  0  0  0  0  0  0  0  0  0  0  0
   -2.9284    7.0652    1.5579 O   0  0  0  0  0  0  0  0  0  0  0  0
   -2.9093    4.7436   -0.1699 O   0  0  0  0  0  0  0  0  0  0  0  0
   -5.2489    4.0065   -0.8003 O   0  0  0  0  0  0  0  0  0  0  0  0
    0.2431   -0.2621    1.1873 C   0  0  0  0  0  0  0  0  0  0  0  0
    1.6265    0.2445    0.3086 S   0  0  0  0  0  0  0  0  0  0  0  0
    2.4848   -1.1778    0.7972 C   0  0  0  0  0  0  0  0  0  0  0  0
    1.6378   -1.9209    1.6302 C   0  0  0  0  0  0  0  0  0  0  0  0
    0.3800   -1.3852    1.8539 N   0  0  0  0  0  0  0  0  0  0  0  0
    2.0970   -3.1349    2.1778 C   0  0  0  0  0  0  0  0  0  0  0  0
    3.3813   -3.5860    1.8869 C   0  0  0  0  0  0  0  0  0  0  0  0
    4.2076   -2.8369    1.0573 C   0  0  0  0  0  0  0  0  0  0  0  0
    3.7994   -1.6137    0.4830 C   0  0  0  0  0  0  0  0  0  0  0  0
    4.7528   -0.9634   -0.3407 N   0  0  0  0  0  0  0  0  0  0  0  0
    5.2301    0.3080    0.2220 C   0  0  0  0  0  0  0  0  0  0  0  0
    6.4676    0.7383   -0.5498 C   0  0  0  0  0  0  0  0  0  0  0  0
    6.1473    0.7976   -2.0292 C   0  0  0  0  0  0  0  0  0  0  0  0
    5.5571   -0.4853   -2.5773 C   0  0  0  0  0  0  0  0  0  0  0  0
    4.3441   -0.8807   -1.7501 C   0  0  0  0  0  0  0  0  0  0  0  0
    7.2776    1.1009   -2.7199 F   0  0  0  0  0  0  0  0  0  0  0  0
    5.2819    1.8219   -2.2589 F   0  0  0  0  0  0  0  0  0  0  0  0
   -0.0009    2.0395    2.4783 H   0  0  0  0  0  0  0  0  0  0  0  0
   -1.9329    3.5478    2.5878 H   0  0  0  0  0  0  0  0  0  0  0  0
   -4.1527    0.8790    0.0497 H   0  0  0  0  0  0  0  0  0  0  0  0
   -0.5006   -1.4825   -1.0963 H   0  0  0  0  0  0  0  0  0  0  0  0
   -1.3253   -0.1736   -1.9726 H   0  0  0  0  0  0  0  0  0  0  0  0
   -1.4098   -2.3336   -3.2105 H   0  0  0  0  0  0  0  0  0  0  0  0
   -3.0262   -1.7546   -2.7982 H   0  0  0  0  0  0  0  0  0  0  0  0
   -3.3680   -4.1302    0.1919 H   0  0  0  0  0  0  0  0  0  0  0  0
   -4.2468   -2.8798   -0.6907 H   0  0  0  0  0  0  0  0  0  0  0  0
   -1.6720   -2.5128    0.9241 H   0  0  0  0  0  0  0  0  0  0  0  0
   -3.2897   -1.9254    1.3529 H   0  0  0  0  0  0  0  0  0  0  0  0
   -0.4437   -4.3920   -2.1516 H   0  0  0  0  0  0  0  0  0  0  0  0
   -1.2682   -5.1460   -0.7224 H   0  0  0  0  0  0  0  0  0  0  0  0
   -3.3768   -5.4043   -2.0754 H   0  0  0  0  0  0  0  0  0  0  0  0
   -2.5522   -4.6483   -3.5049 H   0  0  0  0  0  0  0  0  0  0  0  0
   -5.1795    2.6876    1.2746 H   0  0  0  0  0  0  0  0  0  0  0  0
   -5.8799    5.4478    1.5499 H   0  0  0  0  0  0  0  0  0  0  0  0
   -5.1639    6.5653    0.3618 H   0  0  0  0  0  0  0  0  0  0  0  0
   -4.4956    6.9500    2.8399 H   0  0  0  0  0  0  0  0  0  0  0  0
   -3.5178    5.4843    2.7319 H   0  0  0  0  0  0  0  0  0  0  0  0
   -2.4309    6.4855    0.9428 H   0  0  0  0  0  0  0  0  0  0  0  0
    1.4415   -3.7097    2.8247 H   0  0  0  0  0  0  0  0  0  0  0  0
    3.7373   -4.5223    2.3085 H   0  0  0  0  0  0  0  0  0  0  0  0
    5.2095   -3.2060    0.8412 H   0  0  0  0  0  0  0  0  0  0  0  0
    4.4644    1.0894    0.1592 H   0  0  0  0  0  0  0  0  0  0  0  0
    5.4986    0.1858    1.2787 H   0  0  0  0  0  0  0  0  0  0  0  0
    7.2911    0.0345   -0.3784 H   0  0  0  0  0  0  0  0  0  0  0  0
    6.8040    1.7195   -0.1977 H   0  0  0  0  0  0  0  0  0  0  0  0
    6.3134   -1.2793   -2.5540 H   0  0  0  0  0  0  0  0  0  0  0  0
    5.2657   -0.3486   -3.6244 H   0  0  0  0  0  0  0  0  0  0  0  0
    3.9778   -1.8528   -2.1031 H   0  0  0  0  0  0  0  0  0  0  0  0
    3.5428   -0.1477   -1.8961 H   0  0  0  0  0  0  0  0  0  0  0  0
  1  2  2  0
  2  3  1  0
  3  4  2  0
  4  5  1  0
  5  6  2  0
  6  7  1  0
  7  8  1  0
  8  9  1  0
  9 10  1  0
 10 11  1  0
 11 12  1  0
 10 13  1  0
 13 14  1  0
  4 15  1  0
 15 16  1  0
 16 17  1  0
 17 18  1  0
 18 19  1  0
 16 20  2  0
 16 21  2  0
  1 22  1  0
 22 23  1  0
 23 24  1  0
 24 25  2  0
 25 26  1  0
 25 27  1  0
 27 28  2  0
 28 29  1  0
 29 30  2  0
 30 31  1  0
 31 32  1  0
 32 33  1  0
 33 34  1  0
 34 35  1  0
 35 36  1  0
 34 37  1  0
 34 38  1  0
  6  1  1  0
 12  7  1  0
 26 22  2  0
 36 31  1  0
 14 10  1  0
 30 24  1  0
  2 39  1  0
  3 40  1  0
  5 41  1  0
  8 42  1  0
  8 43  1  0
  9 44  1  0
  9 45  1  0
 11 46  1  0
 11 47  1  0
 12 48  1  0
 12 49  1  0
 13 50  1  0
 13 51  1  0
 14 52  1  0
 14 53  1  0
 15 54  1  0
 17 55  1  0
 17 56  1  0
 18 57  1  0
 18 58  1  0
 19 59  1  0
 27 60  1  0
 28 61  1  0
 29 62  1  0
 32 63  1  0
 32 64  1  0
 33 65  1  0
 33 66  1  0
 35 67  1  0
 35 68  1  0
 36 69  1  0
 36 70  1  0
M  END
$$$$
