BB_41
     RDKit          3D

 70 75  0  0  0  0  0  0  0  0999 V2000
   -0.7544   -1.0313    0.9106 C   0  0  0  0  0  0  0  0  0  0  0  0
   -1.4304   -1.9450    0.0778 C   0  0  0  0  0  0  0  0  0  0  0  0
   -2.7960   -1.8185   -0.1699 C   0  0  0  0  0  0  0  0  0  0  0  0
   -3.5016   -0.7762    0.4160 C   0  0  0  0  0  0  0  0  0  0  0  0
   -2.8451    0.1567    1.2221 C   0  0  0  0  0  0  0  0  0  0  0  0
   -1.4649    0.0548    1.4840 C   0  0  0  0  0  0  0  0  0  0  0  0
   -0.7951    1.0468    2.2304 N   0  0  0  0  0  0  0  0  0  0  0  0
   -1.4554    1.5696    3.4432 C   0  0  0  0  0  0  0  0  0  0  0  0
   -1.8742    3.0354    3.2901 C   0  0  0  0  0  0  0  0  0  0  0  0
   -0.6818    3.9147    2.9545 C   0  0  0  0  0  0  0  0  0  0  0  0
    0.4170    3.2092    2.1773 C   0  0  0  0  0  0  0  0  0  0  0  0
   -0.1516    2.0512    1.3503 C   0  0  0  0  0  0  0  0  0  0  0  0
   -0.9504    5.3787    2.6674 C   0  0  0  0  0  0  0  0  0  0  0  0
   -0.2650    4.9869    3.9417 C   0  0  0  0  0  0  0  0  0  0  0  0
   -4.8916   -0.6258    0.1270 N   0  0  0  0  0  0  0  0  0  0  0  0
   -5.3038    0.3996   -1.1579 S   0  0  0  0  0  6  0  0  0  0  0  0
   -5.2659   -0.6932   -2.5636 C   0  0  0  0  0  0  0  0  0  0  0  0
   -6.2616   -1.8226   -2.4293 C   0  0  0  0  0  0  0  0  0  0  0  0
   -6.1391   -2.6870   -3.5563 O   0  0  0  0  0  0  0  0  0  0  0  0
   -6.6828    0.7707   -0.9143 O   0  0  0  0  0  0  0  0  0  0  0  0
   -4.2855    1.4146   -1.3115 O   0  0  0  0  0  0  0  0  0  0  0  0
    0.6812   -1.2609    1.1319 C   0  0  0  0  0  0  0  0  0  0  0  0
    1.5533   -1.4395    0.1625 N   0  0  0  0  0  0  0  0  0  0  0  0
    2.8301   -1.6711    0.6755 C   0  0  0  0  0  0  0  0  0  0  0  0
    2.8844   -1.6979    2.0724 C   0  0  0  0  0  0  0  0  0  0  0  0
    1.3086   -1.4393    2.7175 S   0  0  0  0  0  0  0  0  0  0  0  0
    4.0768   -1.9141    2.7794 C   0  0  0  0  0  0  0  0  0  0  0  0
    5.2440   -2.1127    2.0504 C   0  0  0  0  0  0  0  0  0  0  0  0
    5.2181   -2.0897    0.6592 C   0  0  0  0  0  0  0  0  0  0  0  0
    4.0314   -1.8621   -0.0817 C   0  0  0  0  0  0  0  0  0  0  0  0
    4.1516   -1.8742   -1.5065 N   0  0  0  0  0  0  0  0  0  0  0  0
    2.8986   -2.1268   -2.2390 C   0  0  0  0  0  0  0  0  0  0  0  0
    3.2379   -2.4159   -3.6928 C   0  0  0  0  0  0  0  0  0  0  0  0
    4.0340   -1.2620   -4.2620 C   0  0  0  0  0  0  0  0  0  0  0  0
    5.2624   -0.9141   -3.4499 C   0  0  0  0  0  0  0  0  0  0  0  0
    4.8750   -0.6859   -1.9976 C   0  0  0  0  0  0  0  0  0  0  0  0
    3.2358   -0.1651   -4.3590 F   0  0  0  0  0  0  0  0  0  0  0  0
    4.4108   -1.5618   -5.5335 F   0  0  0  0  0  0  0  0  0  0  0  0
   -0.8806   -2.7669   -0.3787 H   0  0  0  0  0  0  0  0  0  0  0  0
   -3.2939   -2.5420   -0.8084 H   0  0  0  0  0  0  0  0  0  0  0  0
   -3.4066    1.0022    1.6074 H   0  0  0  0  0  0  0  0  0  0  0  0
   -2.3139    0.9578    3.7450 H   0  0  0  0  0  0  0  0  0  0  0  0
   -0.7312    1.4926    4.2644 H   0  0  0  0  0  0  0  0  0  0  0  0
   -2.3561    3.3714    4.2156 H   0  0  0  0  0  0  0  0  0  0  0  0
   -2.6179    3.1281    2.4894 H   0  0  0  0  0  0  0  0  0  0  0  0
    1.1617    2.8222    2.8843 H   0  0  0  0  0  0  0  0  0  0  0  0
    0.9351    3.9097    1.5122 H   0  0  0  0  0  0  0  0  0  0  0  0
   -0.8784    2.4465    0.6276 H   0  0  0  0  0  0  0  0  0  0  0  0
    0.6657    1.5904    0.7841 H   0  0  0  0  0  0  0  0  0  0  0  0
   -1.9708    5.7418    2.7318 H   0  0  0  0  0  0  0  0  0  0  0  0
   -0.3614    5.8819    1.9084 H   0  0  0  0  0  0  0  0  0  0  0  0
   -0.8187    5.0934    4.8680 H   0  0  0  0  0  0  0  0  0  0  0  0
    0.7901    5.2200    4.0400 H   0  0  0  0  0  0  0  0  0  0  0  0
   -5.4651   -0.3734    0.9353 H   0  0  0  0  0  0  0  0  0  0  0  0
   -4.2441   -1.0616   -2.6934 H   0  0  0  0  0  0  0  0  0  0  0  0
   -5.4948   -0.0877   -3.4474 H   0  0  0  0  0  0  0  0  0  0  0  0
   -7.2878   -1.4429   -2.3957 H   0  0  0  0  0  0  0  0  0  0  0  0
   -6.0824   -2.4163   -1.5282 H   0  0  0  0  0  0  0  0  0  0  0  0
   -6.8344   -3.3643   -3.4770 H   0  0  0  0  0  0  0  0  0  0  0  0
    4.0878   -1.9331    3.8649 H   0  0  0  0  0  0  0  0  0  0  0  0
    6.1819   -2.2954    2.5697 H   0  0  0  0  0  0  0  0  0  0  0  0
    6.1462   -2.2766    0.1211 H   0  0  0  0  0  0  0  0  0  0  0  0
    2.2282   -1.2599   -2.1911 H   0  0  0  0  0  0  0  0  0  0  0  0
    2.3791   -3.0019   -1.8302 H   0  0  0  0  0  0  0  0  0  0  0  0
    3.8173   -3.3433   -3.7762 H   0  0  0  0  0  0  0  0  0  0  0  0
    2.3171   -2.5576   -4.2692 H   0  0  0  0  0  0  0  0  0  0  0  0
    5.7367   -0.0131   -3.8541 H   0  0  0  0  0  0  0  0  0  0  0  0
    5.9963   -1.7256   -3.5259 H   0  0  0  0  0  0  0  0  0  0  0  0
    5.7938   -0.5014   -1.4284 H   0  0  0  0  0  0  0  0  0  0  0  0
    4.2462    0.2093   -1.9024 H   0  0  0  0  0  0  0  0  0  0  0  0
  1  2  2  0
  2  3  1  0
  3  4  2  0
  4  5  1  0
  5  6  2  0
  6  7  1  0
  7  8  1  0
  8  9  1  0
  9 10  1  0
 10 11  1  0
 11 12  1  0
 10 13  1  0
 13 14  1  0
  4 15  1  0
 15 16  1  0
 16 17  1  0
 17 18  1  0
 18 19  1  0
 16 20  2  0
 16 21  2  0
  1 22  1  0
 22 23  2  0
 23 24  1  0
 24 25  2  0
 25 26  1  0
 25 27  1  0
 27 28  2  0
 28 29  1  0
 29 30  2  0
 30 31  1  0
 31 32  1  0
 32 33  1  0
 33 34  1  0
 34 35  1  0
 35 36  1  0
 34 37  1  0
 34 38  1  0
  6  1  1  0
 12  7  1  0
 26 22  1  0
 36 31  1  0
 14 10  1  0
 30 24  1  0
  2 39  1  0
  3 40  1  0
  5 41  1  0
  8 42  1  0
  8 43  1  0
  9 44  1  0
  9 45  1  0
 11 46  1  0
 11 47  1  0
 12 48  1  0
 12 49  1  0
 13 50  1  0
 13 51  1  0
 14 52  1  0
 14 53  1  0
 15 54  1  0
 17 55  1  0
 17 56  1  0
 18 57  1  0
 18 58  1  0
 19 59  1  0
 27 60  1  0
 28 61  1  0
 29 62  1  0
 32 63  1  0
 32 64  1  0
 33 65  1  0
 33 66  1  0
 35 67  1  0
 35 68  1  0
 36 69  1  0
 36 70  1  0
M  END
$$$$
