BB_40
     RDKit          3D

 72 76  0  0  0  0  0  0  0  0999 V2000
   -1.4640    1.7012   -0.7655 C   0  0  0  0  0  0  0  0  0  0  0  0
   -1.5322    3.0271   -1.1612 C   0  0  0  0  0  0  0  0  0  0  0  0
   -2.7195    3.7360   -0.9454 C   0  0  0  0  0  0  0  0  0  0  0  0
   -3.8241    3.1137   -0.3524 C   0  0  0  0  0  0  0  0  0  0  0  0
   -3.7428    1.7787    0.0531 C   0  0  0  0  0  0  0  0  0  0  0  0
   -2.5573    1.0794   -0.1609 C   0  0  0  0  0  0  0  0  0  0  0  0
   -2.2674   -0.3711    0.1632 C   0  0  0  0  0  0  0  0  0  0  0  0
   -0.7670   -0.4674   -0.2370 C   0  0  0  0  0  0  0  0  0  0  0  0
   -0.3836    0.8095   -0.8705 N   0  0  0  0  0  0  0  0  0  0  0  0
    0.8187    1.0804   -1.5056 C   0  0  0  0  0  0  0  0  0  0  0  0
    1.8611    0.0347   -1.4484 C   0  0  0  0  0  0  0  0  0  0  0  0
    2.4798   -0.2738   -0.2362 C   0  0  0  0  0  0  0  0  0  0  0  0
    3.4718   -1.2577   -0.2156 C   0  0  0  0  0  0  0  0  0  0  0  0
    3.8382   -1.9323   -1.3851 C   0  0  0  0  0  0  0  0  0  0  0  0
    3.2314   -1.5941   -2.5963 C   0  0  0  0  0  0  0  0  0  0  0  0
    2.2477   -0.6040   -2.6316 C   0  0  0  0  0  0  0  0  0  0  0  0
    4.2125   -1.6859    1.3359 S   0  0  0  0  0  6  0  0  0  0  0  0
    5.1212   -0.3467    1.7327 N   0  0  0  0  0  0  0  0  0  0  0  0
    6.3096    0.1849    1.0380 C   0  0  0  0  0  0  0  0  0  0  0  0
    5.8680    1.2185   -0.0033 C   0  0  0  0  0  0  0  0  0  0  0  0
    7.1718   -0.8959    0.3857 C   0  0  0  0  0  0  0  0  0  0  0  0
    7.1559    0.8968    2.1100 C   0  0  0  0  0  0  0  0  0  0  0  0
    3.1344   -1.7321    2.3013 O   0  0  0  0  0  0  0  0  0  0  0  0
    5.0831   -2.8209    1.1360 O   0  0  0  0  0  0  0  0  0  0  0  0
    1.1042    2.0973   -2.1303 O   0  0  0  0  0  0  0  0  0  0  0  0
   -2.4736   -0.6715    1.6637 C   0  0  0  0  0  0  0  0  0  0  0  0
   -2.2498   -2.1485    1.9927 C   0  0  0  0  0  0  0  0  0  0  0  0
   -3.1243   -3.0193    1.1206 C   0  0  0  0  0  0  0  0  0  0  0  0
   -2.9411   -2.7834   -0.3603 C   0  0  0  0  0  0  0  0  0  0  0  0
   -3.1454   -1.3054   -0.7005 C   0  0  0  0  0  0  0  0  0  0  0  0
   -3.4051   -4.4305    1.5838 C   0  0  0  0  0  0  0  0  0  0  0  0
   -4.4985   -3.3999    1.6273 C   0  0  0  0  0  0  0  0  0  0  0  0
   -5.0448    3.8118   -0.1296 N   0  0  0  0  0  0  0  0  0  0  0  0
   -5.8547    4.5453   -1.4086 S   0  0  0  0  0  6  0  0  0  0  0  0
   -6.1261    3.1843   -2.5279 C   0  0  0  0  0  0  0  0  0  0  0  0
   -7.1451    4.9315   -0.8765 O   0  0  0  0  0  0  0  0  0  0  0  0
   -4.9931    5.5105   -2.0530 O   0  0  0  0  0  0  0  0  0  0  0  0
   -0.6894    3.5334   -1.6206 H   0  0  0  0  0  0  0  0  0  0  0  0
   -2.7593    4.7842   -1.2332 H   0  0  0  0  0  0  0  0  0  0  0  0
   -4.5900    1.2856    0.5186 H   0  0  0  0  0  0  0  0  0  0  0  0
   -0.5596   -1.2825   -0.9384 H   0  0  0  0  0  0  0  0  0  0  0  0
   -0.1253   -0.6055    0.6400 H   0  0  0  0  0  0  0  0  0  0  0  0
    2.1967    0.2477    0.6749 H   0  0  0  0  0  0  0  0  0  0  0  0
    4.5967   -2.7128   -1.3631 H   0  0  0  0  0  0  0  0  0  0  0  0
    3.5254   -2.1011   -3.5129 H   0  0  0  0  0  0  0  0  0  0  0  0
    1.7820   -0.3305   -3.5762 H   0  0  0  0  0  0  0  0  0  0  0  0
    4.7218    0.2059    2.4908 H   0  0  0  0  0  0  0  0  0  0  0  0
    5.1978    1.9664    0.4361 H   0  0  0  0  0  0  0  0  0  0  0  0
    6.7304    1.7476   -0.4246 H   0  0  0  0  0  0  0  0  0  0  0  0
    5.3380    0.7528   -0.8388 H   0  0  0  0  0  0  0  0  0  0  0  0
    8.0870   -0.4643   -0.0367 H   0  0  0  0  0  0  0  0  0  0  0  0
    6.6512   -1.3956   -0.4363 H   0  0  0  0  0  0  0  0  0  0  0  0
    7.4751   -1.6588    1.1112 H   0  0  0  0  0  0  0  0  0  0  0  0
    7.4665    0.1975    2.8954 H   0  0  0  0  0  0  0  0  0  0  0  0
    8.0598    1.3400    1.6772 H   0  0  0  0  0  0  0  0  0  0  0  0
    6.5901    1.7007    2.5958 H   0  0  0  0  0  0  0  0  0  0  0  0
   -3.4968   -0.4031    1.9589 H   0  0  0  0  0  0  0  0  0  0  0  0
   -1.8065   -0.0541    2.2787 H   0  0  0  0  0  0  0  0  0  0  0  0
   -1.1993   -2.4205    1.8363 H   0  0  0  0  0  0  0  0  0  0  0  0
   -2.4621   -2.3152    3.0558 H   0  0  0  0  0  0  0  0  0  0  0  0
   -3.6466   -3.3857   -0.9458 H   0  0  0  0  0  0  0  0  0  0  0  0
   -1.9365   -3.1092   -0.6537 H   0  0  0  0  0  0  0  0  0  0  0  0
   -2.9468   -1.1473   -1.7684 H   0  0  0  0  0  0  0  0  0  0  0  0
   -4.2050   -1.0598   -0.5467 H   0  0  0  0  0  0  0  0  0  0  0  0
   -2.9850   -4.7636    2.5270 H   0  0  0  0  0  0  0  0  0  0  0  0
   -3.4810   -5.2186    0.8423 H   0  0  0  0  0  0  0  0  0  0  0  0
   -4.8154   -3.0416    2.6009 H   0  0  0  0  0  0  0  0  0  0  0  0
   -5.3114   -3.4962    0.9157 H   0  0  0  0  0  0  0  0  0  0  0  0
   -5.6875    3.4295    0.5632 H   0  0  0  0  0  0  0  0  0  0  0  0
   -6.7444    3.5492   -3.3513 H   0  0  0  0  0  0  0  0  0  0  0  0
   -5.1682    2.8359   -2.9169 H   0  0  0  0  0  0  0  0  0  0  0  0
   -6.6521    2.3882   -1.9976 H   0  0  0  0  0  0  0  0  0  0  0  0
  1  2  2  0
  2  3  1  0
  3  4  2  0
  4  5  1  0
  5  6  2  0
  6  7  1  0
  7  8  1  0
  8  9  1  0
  9 10  1  0
 10 11  1  0
 11 12  2  0
 12 13  1  0
 13 14  2  0
 14 15  1  0
 15 16  2  0
 13 17  1  0
 17 18  1  0
 18 19  1  0
 19 20  1  0
 19 21  1  0
 19 22  1  0
 17 23  2  0
 17 24  2  0
 10 25  2  0
  7 26  1  0
 26 27  1  0
 27 28  1  0
 28 29  1  0
 29 30  1  0
 28 31  1  0
 31 32  1  0
  4 33  1  0
 33 34  1  0
 34 35  1  0
 34 36  2  0
 34 37  2  0
  6  1  1  0
 30  7  1  0
  9  1  1  0
 16 11  1  0
 32 28  1  0
  2 38  1  0
  3 39  1  0
  5 40  1  0
  8 41  1  0
  8 42  1  0
 12 43  1  0
 14 44  1  0
 15 45  1  0
 16 46  1  0
 18 47  1  0
 20 48  1  0
 20 49  1  0
 20 50  1  0
 21 51  1  0
 21 52  1  0
 21 53  1  0
 22 54  1  0
 22 55  1  0
 22 56  1  0
 26 57  1  0
 26 58  1  0
 27 59  1  0
 27 60  1  0
 29 61  1  0
 29 62  1  0
 30 63  1  0
 30 64  1  0
 31 65  1  0
 31 66  1  0
 32 67  1  0
 32 68  1  0
 33 69  1  0
 35 70  1  0
 35 71  1  0
 35 72  1  0
M  END
$$$$
