BB_43
     RDKit          3D

 67 71  0  0  0  0  0  0  0  0999 V2000
   -0.5247    0.1048   -1.4586 C   0  0  0  0  0  0  0  0  0  0  0  0
   -0.7806    1.3245   -2.1240 C   0  0  0  0  0  0  0  0  0  0  0  0
   -2.0609    1.8700   -2.1777 C   0  0  0  0  0  0  0  0  0  0  0  0
   -3.1125    1.1917   -1.5818 C   0  0  0  0  0  0  0  0  0  0  0  0
   -2.8857   -0.0084   -0.9036 C   0  0  0  0  0  0  0  0  0  0  0  0
   -1.5993   -0.5778   -0.8160 C   0  0  0  0  0  0  0  0  0  0  0  0
   -1.3919   -1.7696   -0.1014 N   0  0  0  0  0  0  0  0  0  0  0  0
   -0.4732   -1.6701    1.0557 C   0  0  0  0  0  0  0  0  0  0  0  0
   -1.0386   -2.3680    2.2995 C   0  0  0  0  0  0  0  0  0  0  0  0
   -1.3959   -3.8150    2.0106 C   0  0  0  0  0  0  0  0  0  0  0  0
   -1.9363   -4.0581    0.6112 C   0  0  0  0  0  0  0  0  0  0  0  0
   -2.4733   -2.7605   -0.0045 C   0  0  0  0  0  0  0  0  0  0  0  0
   -0.5593   -4.9112    2.6401 C   0  0  0  0  0  0  0  0  0  0  0  0
   -1.9418   -4.6456    3.1551 C   0  0  0  0  0  0  0  0  0  0  0  0
   -4.4194    1.7651   -1.5935 N   0  0  0  0  0  0  0  0  0  0  0  0
   -4.7850    2.8701   -0.3614 S   0  0  0  0  0  6  0  0  0  0  0  0
   -4.6315    4.4177   -1.2250 C   0  0  0  0  0  0  0  0  0  0  0  0
   -5.0075    5.5617   -0.3084 C   0  0  0  0  0  0  0  0  0  0  0  0
   -4.8694    6.7904   -1.0177 O   0  0  0  0  0  0  0  0  0  0  0  0
   -3.7890    2.8065    0.6843 O   0  0  0  0  0  0  0  0  0  0  0  0
   -6.1889    2.6612   -0.0725 O   0  0  0  0  0  0  0  0  0  0  0  0
    0.8515   -0.4300   -1.5124 C   0  0  0  0  0  0  0  0  0  0  0  0
    1.9307    0.2897   -0.9799 C   0  0  0  0  0  0  0  0  0  0  0  0
    3.2280   -0.2250   -1.0397 C   0  0  0  0  0  0  0  0  0  0  0  0
    3.4765   -1.4112   -1.6325 N   0  0  0  0  0  0  0  0  0  0  0  0
    2.4339   -2.0991   -2.1462 C   0  0  0  0  0  0  0  0  0  0  0  0
    1.1252   -1.6588   -2.1112 C   0  0  0  0  0  0  0  0  0  0  0  0
    4.2934    0.5299   -0.4891 N   0  0  0  0  0  0  0  0  0  0  0  0
    4.1821    0.6195    0.9765 C   0  0  0  0  0  0  0  0  0  0  0  0
    5.2239    1.5981    1.4945 C   0  0  0  0  0  0  0  0  0  0  0  0
    6.5981    1.1857    1.0152 C   0  0  0  0  0  0  0  0  0  0  0  0
    6.6833    1.0104   -0.4843 C   0  0  0  0  0  0  0  0  0  0  0  0
    5.6066    0.0415   -0.9453 C   0  0  0  0  0  0  0  0  0  0  0  0
    7.5065    2.1159    1.4108 F   0  0  0  0  0  0  0  0  0  0  0  0
    6.9583    0.0268    1.6285 F   0  0  0  0  0  0  0  0  0  0  0  0
    0.0311    1.8490   -2.6262 H   0  0  0  0  0  0  0  0  0  0  0  0
   -2.2242    2.8049   -2.7037 H   0  0  0  0  0  0  0  0  0  0  0  0
   -3.7234   -0.4787   -0.3998 H   0  0  0  0  0  0  0  0  0  0  0  0
   -0.2607   -0.6260    1.3178 H   0  0  0  0  0  0  0  0  0  0  0  0
    0.4760   -2.1484    0.7876 H   0  0  0  0  0  0  0  0  0  0  0  0
   -0.3094   -2.2996    3.1154 H   0  0  0  0  0  0  0  0  0  0  0  0
   -1.9410   -1.8412    2.6353 H   0  0  0  0  0  0  0  0  0  0  0  0
   -2.7350   -4.8085    0.6280 H   0  0  0  0  0  0  0  0  0  0  0  0
   -1.1298   -4.4531   -0.0195 H   0  0  0  0  0  0  0  0  0  0  0  0
   -2.8685   -2.9805   -1.0034 H   0  0  0  0  0  0  0  0  0  0  0  0
   -3.2957   -2.3829    0.6154 H   0  0  0  0  0  0  0  0  0  0  0  0
   -0.3949   -5.8259    2.0803 H   0  0  0  0  0  0  0  0  0  0  0  0
    0.2792   -4.6349    3.2700 H   0  0  0  0  0  0  0  0  0  0  0  0
   -2.7079   -5.3854    2.9507 H   0  0  0  0  0  0  0  0  0  0  0  0
   -2.0372   -4.1840    4.1324 H   0  0  0  0  0  0  0  0  0  0  0  0
   -5.1833    1.0897   -1.6648 H   0  0  0  0  0  0  0  0  0  0  0  0
   -3.5987    4.5264   -1.5675 H   0  0  0  0  0  0  0  0  0  0  0  0
   -5.2859    4.3926   -2.1019 H   0  0  0  0  0  0  0  0  0  0  0  0
   -6.0445    5.4741    0.0313 H   0  0  0  0  0  0  0  0  0  0  0  0
   -4.3562    5.5959    0.5709 H   0  0  0  0  0  0  0  0  0  0  0  0
   -5.1182    7.5045   -0.4039 H   0  0  0  0  0  0  0  0  0  0  0  0
    1.7602    1.2607   -0.5252 H   0  0  0  0  0  0  0  0  0  0  0  0
    2.6892   -3.0504   -2.6035 H   0  0  0  0  0  0  0  0  0  0  0  0
    0.3313   -2.2635   -2.5368 H   0  0  0  0  0  0  0  0  0  0  0  0
    4.3263   -0.3687    1.4340 H   0  0  0  0  0  0  0  0  0  0  0  0
    3.1962    0.9843    1.2882 H   0  0  0  0  0  0  0  0  0  0  0  0
    5.1999    1.6213    2.5896 H   0  0  0  0  0  0  0  0  0  0  0  0
    5.0008    2.6140    1.1465 H   0  0  0  0  0  0  0  0  0  0  0  0
    6.5625    1.9822   -0.9781 H   0  0  0  0  0  0  0  0  0  0  0  0
    7.6717    0.6287   -0.7628 H   0  0  0  0  0  0  0  0  0  0  0  0
    5.6416   -0.0072   -2.0413 H   0  0  0  0  0  0  0  0  0  0  0  0
    5.8155   -0.9621   -0.5507 H   0  0  0  0  0  0  0  0  0  0  0  0
  1  2  2  0
  2  3  1  0
  3  4  2  0
  4  5  1  0
  5  6  2  0
  6  7  1  0
  7  8  1  0
  8  9  1  0
  9 10  1  0
 10 11  1  0
 11 12  1  0
 10 13  1  0
 13 14  1  0
  4 15  1  0
 15 16  1  0
 16 17  1  0
 17 18  1  0
 18 19  1  0
 16 20  2  0
 16 21  2  0
  1 22  1  0
 22 23  2  0
 23 24  1  0
 24 25  2  0
 25 26  1  0
 26 27  2  0
 24 28  1  0
 28 29  1  0
 29 30  1  0
 30 31  1  0
 31 32  1  0
 32 33  1  0
 31 34  1  0
 31 35  1  0
  6  1  1  0
 12  7  1  0
 27 22  1  0
 33 28  1  0
 14 10  1  0
  2 36  1  0
  3 37  1  0
  5 38  1  0
  8 39  1  0
  8 40  1  0
  9 41  1  0
  9 42  1  0
 11 43  1  0
 11 44  1  0
 12 45  1  0
 12 46  1  0
 13 47  1  0
 13 48  1  0
 14 49  1  0
 14 50  1  0
 15 51  1  0
 17 52  1  0
 17 53  1  0
 18 54  1  0
 18 55  1  0
 19 56  1  0
 23 57  1  0
 26 58  1  0
 27 59  1  0
 29 60  1  0
 29 61  1  0
 30 62  1  0
 30 63  1  0
 32 64  1  0
 32 65  1  0
 33 66  1  0
 33 67  1  0
M  END
$$$$
