BB_9
     RDKit          3D

 73 75  0  0  0  0  0  0  0  0999 V2000
    9.9141   -1.4668   -0.1531 C   0  0  0  0  0  0  0  0  0  0  0  0
   10.2031   -0.0601    0.2060 N   0  0  0  0  0  0  0  0  0  0  0  0
   11.6590    0.1771    0.3361 C   0  0  0  0  0  0  0  0  0  0  0  0
    9.3116    0.5430    1.5398 S   0  0  0  0  0  6  0  0  0  0  0  0
    7.6421    0.5270    0.9370 C   0  0  0  0  0  0  0  0  0  0  0  0
    7.3055    1.3437   -0.1448 C   0  0  0  0  0  0  0  0  0  0  0  0
    5.9928    1.3440   -0.6390 C   0  0  0  0  0  0  0  0  0  0  0  0
    5.6351    2.2277   -1.8028 C   0  0  0  0  0  0  0  0  0  0  0  0
    5.0208    0.5225   -0.0335 C   0  0  0  0  0  0  0  0  0  0  0  0
    3.7688    0.5904   -0.5857 O   0  0  0  0  0  0  0  0  0  0  0  0
    2.7442   -0.2230   -0.0140 C   0  0  0  0  0  0  0  0  0  0  0  0
    1.4554   -0.0334   -0.7827 C   0  0  0  0  0  0  0  0  0  0  0  0
    0.2279   -0.0219   -0.1036 C   0  0  0  0  0  0  0  0  0  0  0  0
   -0.9852    0.1126   -0.7991 C   0  0  0  0  0  0  0  0  0  0  0  0
   -2.2931    0.1349   -0.0389 C   0  0  0  0  0  0  0  0  0  0  0  0
   -2.5186   -1.1003    0.7496 N   0  0  0  0  0  0  0  0  0  0  0  0
   -2.7918   -2.2888   -0.0822 C   0  0  0  0  0  0  0  0  0  0  0  0
   -3.4610   -0.9233    2.1537 S   0  0  0  0  0  6  0  0  0  0  0  0
   -3.5458   -2.2109    2.8108 O   0  0  0  0  0  0  0  0  0  0  0  0
   -5.0767   -0.5438    1.5102 C   0  0  0  0  0  0  0  0  0  0  0  0
   -5.9722   -1.5753    1.2356 C   0  0  0  0  0  0  0  0  0  0  0  0
   -7.2447   -1.2698    0.7454 C   0  0  0  0  0  0  0  0  0  0  0  0
   -7.6548    0.0633    0.5340 C   0  0  0  0  0  0  0  0  0  0  0  0
   -9.0677    0.3573   -0.0043 C   0  0  0  0  0  0  0  0  0  0  0  0
   -9.2525   -0.3235   -1.3780 C   0  0  0  0  0  0  0  0  0  0  0  0
  -10.1221   -0.1912    0.9809 C   0  0  0  0  0  0  0  0  0  0  0  0
   -9.3620    1.8620   -0.1990 C   0  0  0  0  0  0  0  0  0  0  0  0
   -6.7366    1.0818    0.8469 C   0  0  0  0  0  0  0  0  0  0  0  0
   -5.4605    0.7855    1.3380 C   0  0  0  0  0  0  0  0  0  0  0  0
   -2.9906    0.2442    2.8695 O   0  0  0  0  0  0  0  0  0  0  0  0
   -0.9604    0.2333   -2.1941 C   0  0  0  0  0  0  0  0  0  0  0  0
    0.2532    0.2090   -2.8806 C   0  0  0  0  0  0  0  0  0  0  0  0
    1.4521    0.0702   -2.1805 C   0  0  0  0  0  0  0  0  0  0  0  0
    5.3731   -0.2831    1.0562 C   0  0  0  0  0  0  0  0  0  0  0  0
    6.6826   -0.2819    1.5447 C   0  0  0  0  0  0  0  0  0  0  0  0
    9.6790    1.9278    1.7442 O   0  0  0  0  0  0  0  0  0  0  0  0
    9.4258   -0.4299    2.6068 O   0  0  0  0  0  0  0  0  0  0  0  0
    8.8473   -1.6158   -0.3369 H   0  0  0  0  0  0  0  0  0  0  0  0
   10.2505   -2.1521    0.6306 H   0  0  0  0  0  0  0  0  0  0  0  0
   10.4338   -1.7227   -1.0824 H   0  0  0  0  0  0  0  0  0  0  0  0
   11.8667    1.2466    0.4328 H   0  0  0  0  0  0  0  0  0  0  0  0
   12.0686   -0.3577    1.1984 H   0  0  0  0  0  0  0  0  0  0  0  0
   12.1754   -0.1686   -0.5654 H   0  0  0  0  0  0  0  0  0  0  0  0
    8.0658    1.9779   -0.5976 H   0  0  0  0  0  0  0  0  0  0  0  0
    4.8729    2.9552   -1.5055 H   0  0  0  0  0  0  0  0  0  0  0  0
    5.2585    1.6247   -2.6354 H   0  0  0  0  0  0  0  0  0  0  0  0
    6.5046    2.7861   -2.1655 H   0  0  0  0  0  0  0  0  0  0  0  0
    3.0177   -1.2837   -0.0710 H   0  0  0  0  0  0  0  0  0  0  0  0
    2.5907    0.0718    1.0312 H   0  0  0  0  0  0  0  0  0  0  0  0
    0.2055   -0.1216    0.9816 H   0  0  0  0  0  0  0  0  0  0  0  0
   -3.1310    0.2809   -0.7317 H   0  0  0  0  0  0  0  0  0  0  0  0
   -2.2634    1.0181    0.6089 H   0  0  0  0  0  0  0  0  0  0  0  0
   -1.9256   -2.5146   -0.7117 H   0  0  0  0  0  0  0  0  0  0  0  0
   -2.9625   -3.1756    0.5343 H   0  0  0  0  0  0  0  0  0  0  0  0
   -3.6595   -2.1275   -0.7281 H   0  0  0  0  0  0  0  0  0  0  0  0
   -5.6958   -2.6138    1.4042 H   0  0  0  0  0  0  0  0  0  0  0  0
   -7.9234   -2.0954    0.5382 H   0  0  0  0  0  0  0  0  0  0  0  0
  -10.2387   -0.0990   -1.8009 H   0  0  0  0  0  0  0  0  0  0  0  0
   -8.4963    0.0207   -2.0936 H   0  0  0  0  0  0  0  0  0  0  0  0
   -9.1729   -1.4142   -1.3147 H   0  0  0  0  0  0  0  0  0  0  0  0
   -9.9995    0.2515    1.9765 H   0  0  0  0  0  0  0  0  0  0  0  0
  -11.1386    0.0348    0.6382 H   0  0  0  0  0  0  0  0  0  0  0  0
  -10.0569   -1.2788    1.0946 H   0  0  0  0  0  0  0  0  0  0  0  0
   -9.2949    2.4124    0.7466 H   0  0  0  0  0  0  0  0  0  0  0  0
   -8.6661    2.3201   -0.9115 H   0  0  0  0  0  0  0  0  0  0  0  0
  -10.3743    2.0191   -0.5906 H   0  0  0  0  0  0  0  0  0  0  0  0
   -6.9928    2.1315    0.7275 H   0  0  0  0  0  0  0  0  0  0  0  0
   -4.7820    1.5983    1.5888 H   0  0  0  0  0  0  0  0  0  0  0  0
   -1.8837    0.3438   -2.7578 H   0  0  0  0  0  0  0  0  0  0  0  0
    0.2680    0.2986   -3.9638 H   0  0  0  0  0  0  0  0  0  0  0  0
    2.3905    0.0494   -2.7315 H   0  0  0  0  0  0  0  0  0  0  0  0
    4.6512   -0.9224    1.5546 H   0  0  0  0  0  0  0  0  0  0  0  0
    6.9399   -0.9083    2.3961 H   0  0  0  0  0  0  0  0  0  0  0  0
  1  2  1  0
  2  3  1  0
  2  4  1  0
  4  5  1  0
  5  6  2  0
  6  7  1  0
  7  8  1  0
  7  9  2  0
  9 10  1  0
 10 11  1  0
 11 12  1  0
 12 13  2  0
 13 14  1  0
 14 15  1  0
 15 16  1  0
 16 17  1  0
 16 18  1  0
 18 19  2  0
 18 20  1  0
 20 21  2  0
 21 22  1  0
 22 23  2  0
 23 24  1  0
 24 25  1  0
 24 26  1  0
 24 27  1  0
 23 28  1  0
 28 29  2  0
 18 30  2  0
 14 31  2  0
 31 32  1  0
 32 33  2  0
  9 34  1  0
 34 35  2  0
  4 36  2  0
  4 37  2  0
 35  5  1  0
 33 12  1  0
 29 20  1  0
  1 38  1  0
  1 39  1  0
  1 40  1  0
  3 41  1  0
  3 42  1  0
  3 43  1  0
  6 44  1  0
  8 45  1  0
  8 46  1  0
  8 47  1  0
 11 48  1  0
 11 49  1  0
 13 50  1  0
 15 51  1  0
 15 52  1  0
 17 53  1  0
 17 54  1  0
 17 55  1  0
 21 56  1  0
 22 57  1  0
 25 58  1  0
 25 59  1  0
 25 60  1  0
 26 61  1  0
 26 62  1  0
 26 63  1  0
 27 64  1  0
 27 65  1  0
 27 66  1  0
 28 67  1  0
 29 68  1  0
 31 69  1  0
 32 70  1  0
 33 71  1  0
 34 72  1  0
 35 73  1  0
M  END
$$$$
