4
     RDKit          3D

 48 50  0  0  0  0  0  0  0  0999 V2000
   -2.6633   -3.0809   -1.4656 O   0  0  0  0  0  0  0  0  0  0  0  0
   -2.0324   -2.2257   -0.8590 C   0  0  0  0  0  0  0  0  0  0  0  0
   -2.5452   -1.0063   -0.4935 N   0  0  0  0  0  0  0  0  0  0  0  0
   -3.8842   -0.6240   -0.8729 C   0  0  0  0  0  0  0  0  0  0  0  0
   -4.2548    0.7017   -0.2667 C   0  0  0  0  0  0  0  0  0  0  0  0
   -4.0619    1.8921   -0.9816 C   0  0  0  0  0  0  0  0  0  0  0  0
   -4.3795    3.1228   -0.4046 C   0  0  0  0  0  0  0  0  0  0  0  0
   -4.8841    3.1758    0.8935 C   0  0  0  0  0  0  0  0  0  0  0  0
   -5.0689    1.9994    1.6176 C   0  0  0  0  0  0  0  0  0  0  0  0
   -4.7525    0.7679    1.0423 C   0  0  0  0  0  0  0  0  0  0  0  0
   -0.6312   -2.4969   -0.4704 C   0  0  0  0  0  0  0  0  0  0  0  0
    0.3358   -1.5040   -0.6624 C   0  0  0  0  0  0  0  0  0  0  0  0
   -0.0119   -0.3121   -1.1735 F   0  0  0  0  0  0  0  0  0  0  0  0
    1.6819   -1.7213   -0.3485 C   0  0  0  0  0  0  0  0  0  0  0  0
    2.6847   -0.6138   -0.5278 C   0  0  0  0  0  0  0  0  0  0  0  0
    2.7802    0.3197    0.9973 S   0  0  0  0  0  6  0  0  0  0  0  0
    3.8577    1.6645    0.5530 C   0  0  0  0  0  0  0  0  0  0  0  0
    3.3115    2.8287    0.0048 C   0  0  0  0  0  0  0  0  0  0  0  0
    4.1566    3.8824   -0.3416 C   0  0  0  0  0  0  0  0  0  0  0  0
    5.5325    3.7733   -0.1314 C   0  0  0  0  0  0  0  0  0  0  0  0
    6.0690    2.6143    0.4326 C   0  0  0  0  0  0  0  0  0  0  0  0
    5.2319    1.5551    0.7823 C   0  0  0  0  0  0  0  0  0  0  0  0
    3.4803   -0.4811    1.9861 O   0  0  0  0  0  0  0  0  0  0  0  0
    1.4816    0.8955    1.2952 O   0  0  0  0  0  0  0  0  0  0  0  0
    2.0590   -2.9664    0.1631 C   0  0  0  0  0  0  0  0  0  0  0  0
    1.1025   -3.9672    0.3535 C   0  0  0  0  0  0  0  0  0  0  0  0
   -0.2556   -3.7478    0.0481 C   0  0  0  0  0  0  0  0  0  0  0  0
   -1.2625   -4.8459    0.2982 C   0  0  0  0  0  0  0  0  0  0  0  0
   -0.7651   -5.8095    1.1334 F   0  0  0  0  0  0  0  0  0  0  0  0
   -2.4003   -4.4178    0.9078 F   0  0  0  0  0  0  0  0  0  0  0  0
   -1.6245   -5.5135   -0.8280 F   0  0  0  0  0  0  0  0  0  0  0  0
   -1.9470   -0.2986   -0.0816 H   0  0  0  0  0  0  0  0  0  0  0  0
   -4.5839   -1.4061   -0.5545 H   0  0  0  0  0  0  0  0  0  0  0  0
   -3.9339   -0.5812   -1.9675 H   0  0  0  0  0  0  0  0  0  0  0  0
   -3.6618    1.8661   -1.9929 H   0  0  0  0  0  0  0  0  0  0  0  0
   -4.2310    4.0409   -0.9670 H   0  0  0  0  0  0  0  0  0  0  0  0
   -5.1299    4.1343    1.3428 H   0  0  0  0  0  0  0  0  0  0  0  0
   -5.4565    2.0407    2.6322 H   0  0  0  0  0  0  0  0  0  0  0  0
   -4.8930   -0.1432    1.6207 H   0  0  0  0  0  0  0  0  0  0  0  0
    2.3867    0.0642   -1.3333 H   0  0  0  0  0  0  0  0  0  0  0  0
    3.6791   -1.0113   -0.7532 H   0  0  0  0  0  0  0  0  0  0  0  0
    2.2386    2.9281   -0.1462 H   0  0  0  0  0  0  0  0  0  0  0  0
    3.7434    4.7944   -0.7666 H   0  0  0  0  0  0  0  0  0  0  0  0
    6.1879    4.6001   -0.3966 H   0  0  0  0  0  0  0  0  0  0  0  0
    7.1400    2.5428    0.6084 H   0  0  0  0  0  0  0  0  0  0  0  0
    5.6566    0.6629    1.2370 H   0  0  0  0  0  0  0  0  0  0  0  0
    3.0954   -3.1656    0.4352 H   0  0  0  0  0  0  0  0  0  0  0  0
    1.4219   -4.9275    0.7617 H   0  0  0  0  0  0  0  0  0  0  0  0
  1  2  2  0
  2  3  1  0
  3  4  1  0
  4  5  1  0
  5  6  2  0
  6  7  1  0
  7  8  2  0
  8  9  1  0
  9 10  2  0
  2 11  1  0
 11 12  2  0
 12 13  1  0
 12 14  1  0
 14 15  1  0
 15 16  1  0
 16 17  1  0
 17 18  2  0
 18 19  1  0
 19 20  2  0
 20 21  1  0
 21 22  2  0
 16 23  2  0
 16 24  2  0
 14 25  2  0
 25 26  1  0
 26 27  2  0
 27 28  1  0
 28 29  1  0
 28 30  1  0
 28 31  1  0
 10  5  1  0
 27 11  1  0
 22 17  1  0
  3 32  1  0
  4 33  1  0
  4 34  1  0
  6 35  1  0
  7 36  1  0
  8 37  1  0
  9 38  1  0
 10 39  1  0
 15 40  1  0
 15 41  1  0
 18 42  1  0
 19 43  1  0
 20 44  1  0
 21 45  1  0
 22 46  1  0
 25 47  1  0
 26 48  1  0
M  END
$$$$
