6
     RDKit          3D

 55 58  0  0  0  0  0  0  0  0999 V2000
    0.8500   -2.5795    1.2943 O   0  0  0  0  0  0  0  0  0  0  0  0
    0.5361   -1.9152    0.3160 C   0  0  0  0  0  0  0  0  0  0  0  0
   -0.6073   -1.1558    0.1622 N   0  0  0  0  0  0  0  0  0  0  0  0
   -1.6646   -1.0008    1.0849 C   0  0  0  0  0  0  0  0  0  0  0  0
   -1.7417   -1.6724    2.3039 C   0  0  0  0  0  0  0  0  0  0  0  0
   -2.8237   -1.4578    3.1602 C   0  0  0  0  0  0  0  0  0  0  0  0
   -3.8387   -0.5701    2.8031 C   0  0  0  0  0  0  0  0  0  0  0  0
   -3.7923    0.1164    1.5822 C   0  0  0  0  0  0  0  0  0  0  0  0
   -4.8599    1.0534    1.1990 C   0  0  0  0  0  0  0  0  0  0  0  0
   -5.2010    2.1371    2.0250 C   0  0  0  0  0  0  0  0  0  0  0  0
   -6.2130    3.0293    1.6608 C   0  0  0  0  0  0  0  0  0  0  0  0
   -6.9022    2.8509    0.4640 C   0  0  0  0  0  0  0  0  0  0  0  0
   -6.5809    1.7817   -0.3685 C   0  0  0  0  0  0  0  0  0  0  0  0
   -5.5677    0.8911   -0.0036 C   0  0  0  0  0  0  0  0  0  0  0  0
   -2.6940   -0.1142    0.7334 C   0  0  0  0  0  0  0  0  0  0  0  0
    1.4797   -1.9110   -0.8349 C   0  0  0  0  0  0  0  0  0  0  0  0
    1.6991   -0.7227   -1.5452 C   0  0  0  0  0  0  0  0  0  0  0  0
    0.9960    0.3805   -1.2438 F   0  0  0  0  0  0  0  0  0  0  0  0
    2.6477   -0.6359   -2.5715 C   0  0  0  0  0  0  0  0  0  0  0  0
    2.8958    0.6759   -3.2679 C   0  0  0  0  0  0  0  0  0  0  0  0
    4.3316    1.5003   -2.5947 S   0  0  0  0  0  6  0  0  0  0  0  0
    4.0185    1.6299   -0.8497 C   0  0  0  0  0  0  0  0  0  0  0  0
    3.1937    2.6545   -0.3767 C   0  0  0  0  0  0  0  0  0  0  0  0
    2.9191    2.7347    0.9879 C   0  0  0  0  0  0  0  0  0  0  0  0
    3.4746    1.8050    1.8688 C   0  0  0  0  0  0  0  0  0  0  0  0
    4.3180    0.7997    1.3928 C   0  0  0  0  0  0  0  0  0  0  0  0
    4.6012    0.7132    0.0306 C   0  0  0  0  0  0  0  0  0  0  0  0
    4.3477    2.8538   -3.1210 O   0  0  0  0  0  0  0  0  0  0  0  0
    5.4880    0.6402   -2.7764 O   0  0  0  0  0  0  0  0  0  0  0  0
    3.3769   -1.7804   -2.9035 C   0  0  0  0  0  0  0  0  0  0  0  0
    3.1571   -2.9776   -2.2189 C   0  0  0  0  0  0  0  0  0  0  0  0
    2.2058   -3.0656   -1.1818 C   0  0  0  0  0  0  0  0  0  0  0  0
    1.9922   -4.3952   -0.4923 C   0  0  0  0  0  0  0  0  0  0  0  0
    2.4894   -5.4327   -1.2344 F   0  0  0  0  0  0  0  0  0  0  0  0
    2.6184   -4.4932    0.7083 F   0  0  0  0  0  0  0  0  0  0  0  0
    0.6817   -4.7079   -0.3072 F   0  0  0  0  0  0  0  0  0  0  0  0
   -0.6858   -0.6000   -0.6812 H   0  0  0  0  0  0  0  0  0  0  0  0
   -0.9774   -2.3752    2.6202 H   0  0  0  0  0  0  0  0  0  0  0  0
   -2.8743   -1.9892    4.1073 H   0  0  0  0  0  0  0  0  0  0  0  0
   -4.6771   -0.4263    3.4818 H   0  0  0  0  0  0  0  0  0  0  0  0
   -4.6685    2.2991    2.9603 H   0  0  0  0  0  0  0  0  0  0  0  0
   -6.4607    3.8631    2.3125 H   0  0  0  0  0  0  0  0  0  0  0  0
   -7.6909    3.5434    0.1815 H   0  0  0  0  0  0  0  0  0  0  0  0
   -7.1212    1.6364   -1.3002 H   0  0  0  0  0  0  0  0  0  0  0  0
   -5.3417    0.0542   -0.6613 H   0  0  0  0  0  0  0  0  0  0  0  0
   -2.6443    0.4254   -0.2100 H   0  0  0  0  0  0  0  0  0  0  0  0
    2.0422    1.3551   -3.1771 H   0  0  0  0  0  0  0  0  0  0  0  0
    3.0793    0.5175   -4.3359 H   0  0  0  0  0  0  0  0  0  0  0  0
    2.7632    3.3871   -1.0554 H   0  0  0  0  0  0  0  0  0  0  0  0
    2.2735    3.5225    1.3690 H   0  0  0  0  0  0  0  0  0  0  0  0
    3.2556    1.8682    2.9326 H   0  0  0  0  0  0  0  0  0  0  0  0
    4.7546    0.0850    2.0871 H   0  0  0  0  0  0  0  0  0  0  0  0
    5.2643   -0.0699   -0.3305 H   0  0  0  0  0  0  0  0  0  0  0  0
    4.1349   -1.7499   -3.6871 H   0  0  0  0  0  0  0  0  0  0  0  0
    3.7426   -3.8553   -2.4989 H   0  0  0  0  0  0  0  0  0  0  0  0
  1  2  2  0
  2  3  1  0
  3  4  1  0
  4  5  2  0
  5  6  1  0
  6  7  2  0
  7  8  1  0
  8  9  1  0
  9 10  2  0
 10 11  1  0
 11 12  2  0
 12 13  1  0
 13 14  2  0
  8 15  2  0
  2 16  1  0
 16 17  2  0
 17 18  1  0
 17 19  1  0
 19 20  1  0
 20 21  1  0
 21 22  1  0
 22 23  2  0
 23 24  1  0
 24 25  2  0
 25 26  1  0
 26 27  2  0
 21 28  2  0
 21 29  2  0
 19 30  2  0
 30 31  1  0
 31 32  2  0
 32 33  1  0
 33 34  1  0
 33 35  1  0
 33 36  1  0
 15  4  1  0
 14  9  1  0
 32 16  1  0
 27 22  1  0
  3 37  1  0
  5 38  1  0
  6 39  1  0
  7 40  1  0
 10 41  1  0
 11 42  1  0
 12 43  1  0
 13 44  1  0
 14 45  1  0
 15 46  1  0
 20 47  1  0
 20 48  1  0
 23 49  1  0
 24 50  1  0
 25 51  1  0
 26 52  1  0
 27 53  1  0
 30 54  1  0
 31 55  1  0
M  END
$$$$
