AGAN406
     RDKit          3D

 75 76  0  0  0  0  0  0  0  0999 V2000
   -1.4344    0.0072    3.3359 C   0  0  0  0  0  0  0  0  0  0  0  0
   -1.8905    0.4263    1.9672 C   0  0  0  0  0  0  0  0  0  0  0  0
   -2.2142   -0.5452    1.0098 C   0  0  0  0  0  0  0  0  0  0  0  0
   -2.6227   -0.1574   -0.2703 C   0  0  0  0  0  0  0  0  0  0  0  0
   -2.9281   -1.3949   -1.5148 S   0  0  0  0  0  6  0  0  0  0  0  0
   -2.2850   -2.6166   -1.0784 O   0  0  0  0  0  0  0  0  0  0  0  0
   -2.5908   -0.7951   -2.7895 O   0  0  0  0  0  0  0  0  0  0  0  0
   -4.6097   -1.6211   -1.4409 N   0  0  0  0  0  0  0  0  0  0  0  0
   -5.4613   -0.5244   -1.9293 C   0  0  0  0  0  0  0  0  0  0  0  0
   -5.1392   -2.2717   -0.2295 C   0  0  0  0  0  0  0  0  0  0  0  0
   -2.7114    1.1940   -0.6131 C   0  0  0  0  0  0  0  0  0  0  0  0
   -2.3808    2.1633    0.3313 C   0  0  0  0  0  0  0  0  0  0  0  0
   -1.9311    1.7805    1.5989 C   0  0  0  0  0  0  0  0  0  0  0  0
   -1.5481    2.7153    2.5277 O   0  0  0  0  0  0  0  0  0  0  0  0
   -0.4527    3.5341    2.0858 C   0  0  0  0  0  0  0  0  0  0  0  0
    0.8778    2.7889    2.2136 C   0  0  0  0  0  0  0  0  0  0  0  0
    2.0703    3.5618    1.6487 C   0  0  0  0  0  0  0  0  0  0  0  0
    2.0185    3.8484    0.1422 C   0  0  0  0  0  0  0  0  0  0  0  0
    1.8389    2.5926   -0.7182 C   0  0  0  0  0  0  0  0  0  0  0  0
    1.9749    2.9163   -2.2029 C   0  0  0  0  0  0  0  0  0  0  0  0
    1.6269    1.7868   -3.0876 N   0  0  0  0  0  0  0  0  0  0  0  0
    0.1952    1.4889   -3.2239 C   0  0  0  0  0  0  0  0  0  0  0  0
    2.7404    0.5438   -3.3706 S   0  0  0  0  0  6  0  0  0  0  0  0
    4.0721    1.1016   -3.2465 O   0  0  0  0  0  0  0  0  0  0  0  0
    2.3407   -0.1572   -4.5729 O   0  0  0  0  0  0  0  0  0  0  0  0
    2.4995   -0.5838   -2.0144 C   0  0  0  0  0  0  0  0  0  0  0  0
    1.4162   -1.4607   -2.0300 C   0  0  0  0  0  0  0  0  0  0  0  0
    1.2512   -2.3736   -0.9847 C   0  0  0  0  0  0  0  0  0  0  0  0
    2.1666   -2.4462    0.0853 C   0  0  0  0  0  0  0  0  0  0  0  0
    1.9546   -3.4762    1.2097 C   0  0  0  0  0  0  0  0  0  0  0  0
    3.0204   -3.4089    2.3268 C   0  0  0  0  0  0  0  0  0  0  0  0
    0.5827   -3.2450    1.8781 C   0  0  0  0  0  0  0  0  0  0  0  0
    1.9977   -4.9018    0.6193 C   0  0  0  0  0  0  0  0  0  0  0  0
    3.2656   -1.5697    0.0571 C   0  0  0  0  0  0  0  0  0  0  0  0
    3.4395   -0.6541   -0.9868 C   0  0  0  0  0  0  0  0  0  0  0  0
   -0.3468    0.0974    3.4151 H   0  0  0  0  0  0  0  0  0  0  0  0
   -1.7090   -1.0325    3.5436 H   0  0  0  0  0  0  0  0  0  0  0  0
   -1.9060    0.6239    4.1079 H   0  0  0  0  0  0  0  0  0  0  0  0
   -2.1333   -1.6015    1.2588 H   0  0  0  0  0  0  0  0  0  0  0  0
   -6.4661   -0.9061   -2.1388 H   0  0  0  0  0  0  0  0  0  0  0  0
   -5.0788   -0.1112   -2.8665 H   0  0  0  0  0  0  0  0  0  0  0  0
   -5.5428    0.2727   -1.1852 H   0  0  0  0  0  0  0  0  0  0  0  0
   -6.1618   -2.6169   -0.4139 H   0  0  0  0  0  0  0  0  0  0  0  0
   -4.5504   -3.1540    0.0354 H   0  0  0  0  0  0  0  0  0  0  0  0
   -5.1555   -1.5765    0.6146 H   0  0  0  0  0  0  0  0  0  0  0  0
   -3.0209    1.4970   -1.6105 H   0  0  0  0  0  0  0  0  0  0  0  0
   -2.4690    3.2138    0.0692 H   0  0  0  0  0  0  0  0  0  0  0  0
   -0.6190    3.9170    1.0748 H   0  0  0  0  0  0  0  0  0  0  0  0
   -0.4340    4.4109    2.7435 H   0  0  0  0  0  0  0  0  0  0  0  0
    0.8198    1.8025    1.7413 H   0  0  0  0  0  0  0  0  0  0  0  0
    1.0570    2.5817    3.2765 H   0  0  0  0  0  0  0  0  0  0  0  0
    2.1704    4.5139    2.1840 H   0  0  0  0  0  0  0  0  0  0  0  0
    2.9818    2.9898    1.8633 H   0  0  0  0  0  0  0  0  0  0  0  0
    1.2160    4.5621   -0.0762 H   0  0  0  0  0  0  0  0  0  0  0  0
    2.9552    4.3466   -0.1381 H   0  0  0  0  0  0  0  0  0  0  0  0
    0.8589    2.1458   -0.5234 H   0  0  0  0  0  0  0  0  0  0  0  0
    2.5942    1.8594   -0.4272 H   0  0  0  0  0  0  0  0  0  0  0  0
    2.9910    3.2610   -2.4258 H   0  0  0  0  0  0  0  0  0  0  0  0
    1.3230    3.7614   -2.4589 H   0  0  0  0  0  0  0  0  0  0  0  0
    0.0034    0.8457   -4.0869 H   0  0  0  0  0  0  0  0  0  0  0  0
   -0.1883    1.0060   -2.3229 H   0  0  0  0  0  0  0  0  0  0  0  0
   -0.3678    2.4130   -3.3886 H   0  0  0  0  0  0  0  0  0  0  0  0
    0.7034   -1.4563   -2.8522 H   0  0  0  0  0  0  0  0  0  0  0  0
    0.3954   -3.0465   -1.0278 H   0  0  0  0  0  0  0  0  0  0  0  0
    3.0351   -2.4253    2.8108 H   0  0  0  0  0  0  0  0  0  0  0  0
    4.0252   -3.6148    1.9399 H   0  0  0  0  0  0  0  0  0  0  0  0
    2.8201   -4.1508    3.1092 H   0  0  0  0  0  0  0  0  0  0  0  0
    0.4260   -3.9394    2.7118 H   0  0  0  0  0  0  0  0  0  0  0  0
    0.5061   -2.2260    2.2740 H   0  0  0  0  0  0  0  0  0  0  0  0
   -0.2486   -3.3926    1.1805 H   0  0  0  0  0  0  0  0  0  0  0  0
    1.1987   -5.0717   -0.1108 H   0  0  0  0  0  0  0  0  0  0  0  0
    1.8816   -5.6583    1.4042 H   0  0  0  0  0  0  0  0  0  0  0  0
    2.9516   -5.0903    0.1126 H   0  0  0  0  0  0  0  0  0  0  0  0
    4.0221   -1.5841    0.8372 H   0  0  0  0  0  0  0  0  0  0  0  0
    4.3124   -0.0047   -0.9874 H   0  0  0  0  0  0  0  0  0  0  0  0
  1  2  1  0
  2  3  2  0
  3  4  1  0
  4  5  1  0
  5  6  2  0
  5  7  2  0
  5  8  1  0
  8  9  1  0
  8 10  1  0
  4 11  2  0
 11 12  1  0
 12 13  2  0
 13 14  1  0
 14 15  1  0
 15 16  1  0
 16 17  1  0
 17 18  1  0
 18 19  1  0
 19 20  1  0
 20 21  1  0
 21 22  1  0
 21 23  1  0
 23 24  2  0
 23 25  2  0
 23 26  1  0
 26 27  2  0
 27 28  1  0
 28 29  2  0
 29 30  1  0
 30 31  1  0
 30 32  1  0
 30 33  1  0
 29 34  1  0
 34 35  2  0
 13  2  1  0
 35 26  1  0
  1 36  1  0
  1 37  1  0
  1 38  1  0
  3 39  1  0
  9 40  1  0
  9 41  1  0
  9 42  1  0
 10 43  1  0
 10 44  1  0
 10 45  1  0
 11 46  1  0
 12 47  1  0
 15 48  1  0
 15 49  1  0
 16 50  1  0
 16 51  1  0
 17 52  1  0
 17 53  1  0
 18 54  1  0
 18 55  1  0
 19 56  1  0
 19 57  1  0
 20 58  1  0
 20 59  1  0
 22 60  1  0
 22 61  1  0
 22 62  1  0
 27 63  1  0
 28 64  1  0
 31 65  1  0
 31 66  1  0
 31 67  1  0
 32 68  1  0
 32 69  1  0
 32 70  1  0
 33 71  1  0
 33 72  1  0
 33 73  1  0
 34 74  1  0
 35 75  1  0
M  END
$$$$
