AGAN-407
     RDKit          3D

 71 74  0  0  0  0  0  0  0  0999 V2000
   -3.7070   -1.5599   -2.5769 C   0  0  0  0  0  0  0  0  0  0  0  0
   -4.0514   -1.9591   -1.2170 N   0  0  0  0  0  0  0  0  0  0  0  0
   -3.2421   -1.7187   -0.1113 C   0  0  0  0  0  0  0  0  0  0  0  0
   -1.8618   -1.1498   -0.3818 C   0  0  0  0  0  0  0  0  0  0  0  0
   -1.1048   -0.8890    0.9188 C   0  0  0  0  0  0  0  0  0  0  0  0
    0.2471   -0.2948    0.6753 C   0  0  0  0  0  0  0  0  0  0  0  0
    0.8095   -0.1125   -0.5035 N   0  0  0  0  0  0  0  0  0  0  0  0
    2.0276    0.4633   -0.2579 C   0  0  0  0  0  0  0  0  0  0  0  0
    3.0133    0.8664   -1.1662 C   0  0  0  0  0  0  0  0  0  0  0  0
    4.1902    1.4253   -0.6505 C   0  0  0  0  0  0  0  0  0  0  0  0
    5.4513    1.9229   -1.7927 S   0  0  0  0  0  6  0  0  0  0  0  0
    5.9058    0.4492   -2.5237 N   0  0  0  0  0  0  0  0  0  0  0  0
    6.4280   -0.5989   -1.5849 C   0  0  0  0  0  0  0  0  0  0  0  0
    7.2258   -1.6569   -2.3536 C   0  0  0  0  0  0  0  0  0  0  0  0
    8.3929   -1.1223   -2.9929 O   0  0  0  0  0  0  0  0  0  0  0  0
    8.2416    0.2481   -3.3930 C   0  0  0  0  0  0  0  0  0  0  0  0
    6.7937    0.6204   -3.7234 C   0  0  0  0  0  0  0  0  0  0  0  0
    6.5960    2.3963   -1.0424 O   0  0  0  0  0  0  0  0  0  0  0  0
    4.8237    2.7521   -2.7984 O   0  0  0  0  0  0  0  0  0  0  0  0
    4.3844    1.5970    0.7239 C   0  0  0  0  0  0  0  0  0  0  0  0
    3.4003    1.2008    1.6358 C   0  0  0  0  0  0  0  0  0  0  0  0
    2.2328    0.6329    1.1081 C   0  0  0  0  0  0  0  0  0  0  0  0
    1.0806    0.1438    1.6833 N   0  0  0  0  0  0  0  0  0  0  0  0
    0.8048    0.0965    3.1101 C   0  0  0  0  0  0  0  0  0  0  0  0
    0.1606    1.3883    3.6122 C   0  0  0  0  0  0  0  0  0  0  0  0
   -0.0690    1.3971    5.1242 C   0  0  0  0  0  0  0  0  0  0  0  0
   -1.0919    0.3706    5.5860 C   0  0  0  0  0  0  0  0  0  0  0  0
   -3.6160   -1.9539    1.0395 O   0  0  0  0  0  0  0  0  0  0  0  0
   -5.4289   -2.3945   -0.9899 C   0  0  0  0  0  0  0  0  0  0  0  0
   -6.4029   -1.2449   -0.9553 C   0  0  0  0  0  0  0  0  0  0  0  0
   -7.1460   -0.9065   -2.0872 C   0  0  0  0  0  0  0  0  0  0  0  0
   -6.9920   -1.6068   -3.2201 F   0  0  0  0  0  0  0  0  0  0  0  0
   -8.0553    0.1434   -2.0703 C   0  0  0  0  0  0  0  0  0  0  0  0
   -8.2182    0.8845   -0.9013 C   0  0  0  0  0  0  0  0  0  0  0  0
   -9.3672    2.1779   -0.9029 Cl  0  0  0  0  0  0  0  0  0  0  0  0
   -7.4490    0.6103    0.2451 C   0  0  0  0  0  0  0  0  0  0  0  0
   -7.6834    1.2576    1.4705 N   0  0  0  0  0  0  0  0  0  0  0  0
   -6.5755   -0.4847    0.2132 C   0  0  0  0  0  0  0  0  0  0  0  0
   -4.0694   -0.5421   -2.7470 H   0  0  0  0  0  0  0  0  0  0  0  0
   -2.6290   -1.5829   -2.7452 H   0  0  0  0  0  0  0  0  0  0  0  0
   -4.1761   -2.2444   -3.2897 H   0  0  0  0  0  0  0  0  0  0  0  0
   -1.3027   -1.8677   -0.9931 H   0  0  0  0  0  0  0  0  0  0  0  0
   -1.9706   -0.2122   -0.9396 H   0  0  0  0  0  0  0  0  0  0  0  0
   -1.6892   -0.2109    1.5525 H   0  0  0  0  0  0  0  0  0  0  0  0
   -0.9867   -1.8301    1.4700 H   0  0  0  0  0  0  0  0  0  0  0  0
    2.8592    0.7423   -2.2330 H   0  0  0  0  0  0  0  0  0  0  0  0
    5.5815   -1.0792   -1.0845 H   0  0  0  0  0  0  0  0  0  0  0  0
    7.0766   -0.1408   -0.8303 H   0  0  0  0  0  0  0  0  0  0  0  0
    7.5585   -2.4473   -1.6734 H   0  0  0  0  0  0  0  0  0  0  0  0
    6.6044   -2.1280   -3.1241 H   0  0  0  0  0  0  0  0  0  0  0  0
    8.8802    0.4034   -4.2683 H   0  0  0  0  0  0  0  0  0  0  0  0
    8.6320    0.8790   -2.5864 H   0  0  0  0  0  0  0  0  0  0  0  0
    6.7520    1.6433   -4.1101 H   0  0  0  0  0  0  0  0  0  0  0  0
    6.4021   -0.0361   -4.5096 H   0  0  0  0  0  0  0  0  0  0  0  0
    5.3029    2.0459    1.0992 H   0  0  0  0  0  0  0  0  0  0  0  0
    3.5430    1.3369    2.7028 H   0  0  0  0  0  0  0  0  0  0  0  0
    1.7533   -0.0930    3.6251 H   0  0  0  0  0  0  0  0  0  0  0  0
    0.1649   -0.7711    3.2964 H   0  0  0  0  0  0  0  0  0  0  0  0
   -0.7908    1.5611    3.0942 H   0  0  0  0  0  0  0  0  0  0  0  0
    0.8054    2.2390    3.3572 H   0  0  0  0  0  0  0  0  0  0  0  0
    0.8795    1.2293    5.6473 H   0  0  0  0  0  0  0  0  0  0  0  0
   -0.4202    2.3940    5.4164 H   0  0  0  0  0  0  0  0  0  0  0  0
   -1.2857    0.4894    6.6568 H   0  0  0  0  0  0  0  0  0  0  0  0
   -0.7357   -0.6512    5.4260 H   0  0  0  0  0  0  0  0  0  0  0  0
   -2.0406    0.4942    5.0542 H   0  0  0  0  0  0  0  0  0  0  0  0
   -5.4991   -2.9499   -0.0465 H   0  0  0  0  0  0  0  0  0  0  0  0
   -5.6977   -3.1136   -1.7733 H   0  0  0  0  0  0  0  0  0  0  0  0
   -8.6298    0.3678   -2.9627 H   0  0  0  0  0  0  0  0  0  0  0  0
   -6.8870    1.2660    2.1000 H   0  0  0  0  0  0  0  0  0  0  0  0
   -8.1133    2.1739    1.3596 H   0  0  0  0  0  0  0  0  0  0  0  0
   -6.0195   -0.7561    1.1099 H   0  0  0  0  0  0  0  0  0  0  0  0
  1  2  1  0
  2  3  1  0
  3  4  1  0
  4  5  1  0
  5  6  1  0
  6  7  2  0
  7  8  1  0
  8  9  2  0
  9 10  1  0
 10 11  1  0
 11 12  1  0
 12 13  1  0
 13 14  1  0
 14 15  1  0
 15 16  1  0
 16 17  1  0
 11 18  2  0
 11 19  2  0
 10 20  2  0
 20 21  1  0
  8 22  1  0
 22 23  1  0
 23 24  1  0
 24 25  1  0
 25 26  1  0
 26 27  1  0
  3 28  2  0
  2 29  1  0
 29 30  1  0
 30 31  2  0
 31 32  1  0
 31 33  1  0
 33 34  2  0
 34 35  1  0
 34 36  1  0
 36 37  1  0
 36 38  2  0
 23  6  1  0
 17 12  1  0
 22 21  2  0
 38 30  1  0
  1 39  1  0
  1 40  1  0
  1 41  1  0
  4 42  1  0
  4 43  1  0
  5 44  1  0
  5 45  1  0
  9 46  1  0
 13 47  1  0
 13 48  1  0
 14 49  1  0
 14 50  1  0
 16 51  1  0
 16 52  1  0
 17 53  1  0
 17 54  1  0
 20 55  1  0
 21 56  1  0
 24 57  1  0
 24 58  1  0
 25 59  1  0
 25 60  1  0
 26 61  1  0
 26 62  1  0
 27 63  1  0
 27 64  1  0
 27 65  1  0
 29 66  1  0
 29 67  1  0
 33 68  1  0
 37 69  1  0
 37 70  1  0
 38 71  1  0
M  END
$$$$
