AGAN 245-df-2-CN
     RDKit          3D

 58 61  0  0  0  0  0  0  0  0999 V2000
   -3.9730   -1.7485   -5.0134 C   0  0  0  0  0  0  0  0  0  0  0  0
   -3.1063   -1.6417   -3.7945 C   0  0  0  0  0  0  0  0  0  0  0  0
   -2.0455   -2.5264   -3.5976 C   0  0  0  0  0  0  0  0  0  0  0  0
   -1.2167   -2.4089   -2.4770 C   0  0  0  0  0  0  0  0  0  0  0  0
   -1.4221   -1.3966   -1.5343 C   0  0  0  0  0  0  0  0  0  0  0  0
   -0.6148   -1.2587   -0.3760 N   0  0  0  0  0  0  0  0  0  0  0  0
    0.5442   -1.9368   -0.0580 C   0  0  0  0  0  0  0  0  0  0  0  0
    1.1137   -2.7651   -0.7556 O   0  0  0  0  0  0  0  0  0  0  0  0
    1.1680   -1.5951    1.2556 C   0  0  0  0  0  0  0  0  0  0  0  0
    1.0309   -0.2997    1.7766 C   0  0  0  0  0  0  0  0  0  0  0  0
    0.2756    0.6069    1.1382 F   0  0  0  0  0  0  0  0  0  0  0  0
    1.6701    0.1066    2.9538 C   0  0  0  0  0  0  0  0  0  0  0  0
    1.5229    1.5216    3.4460 C   0  0  0  0  0  0  0  0  0  0  0  0
    2.8780    2.5435    2.8897 S   0  0  0  0  0  6  0  0  0  0  0  0
    4.1255    1.9480    3.3358 O   0  0  0  0  0  0  0  0  0  0  0  0
    2.5655    3.9166    3.2462 O   0  0  0  0  0  0  0  0  0  0  0  0
    2.8353    2.4532    1.1148 C   0  0  0  0  0  0  0  0  0  0  0  0
    3.6983    1.5832    0.4422 C   0  0  0  0  0  0  0  0  0  0  0  0
    3.6322    1.4949   -0.9476 C   0  0  0  0  0  0  0  0  0  0  0  0
    2.7254    2.2851   -1.6562 C   0  0  0  0  0  0  0  0  0  0  0  0
    1.8879    3.1745   -0.9809 C   0  0  0  0  0  0  0  0  0  0  0  0
    1.9425    3.2657    0.4094 C   0  0  0  0  0  0  0  0  0  0  0  0
    2.4610   -0.8198    3.6348 C   0  0  0  0  0  0  0  0  0  0  0  0
    2.5924   -2.1214    3.1470 C   0  0  0  0  0  0  0  0  0  0  0  0
    1.9449   -2.5338    1.9622 C   0  0  0  0  0  0  0  0  0  0  0  0
    2.1003   -3.9705    1.5117 C   0  0  0  0  0  0  0  0  0  0  0  0
    2.5783   -4.7649    2.5202 F   0  0  0  0  0  0  0  0  0  0  0  0
    0.9293   -4.5582    1.1469 F   0  0  0  0  0  0  0  0  0  0  0  0
    2.9863   -4.1317    0.4954 F   0  0  0  0  0  0  0  0  0  0  0  0
   -2.4855   -0.4804   -1.7297 C   0  0  0  0  0  0  0  0  0  0  0  0
   -3.3101   -0.6173   -2.8640 C   0  0  0  0  0  0  0  0  0  0  0  0
   -2.7524    0.6291   -0.8002 C   0  0  0  0  0  0  0  0  0  0  0  0
   -3.7216    0.5047    0.2061 C   0  0  0  0  0  0  0  0  0  0  0  0
   -3.9557    1.5505    1.1015 C   0  0  0  0  0  0  0  0  0  0  0  0
   -3.2251    2.7332    1.0002 C   0  0  0  0  0  0  0  0  0  0  0  0
   -2.2616    2.8731    0.0035 C   0  0  0  0  0  0  0  0  0  0  0  0
   -2.0272    1.8276   -0.8916 C   0  0  0  0  0  0  0  0  0  0  0  0
   -4.0467   -2.7876   -5.3512 H   0  0  0  0  0  0  0  0  0  0  0  0
   -3.5560   -1.1421   -5.8233 H   0  0  0  0  0  0  0  0  0  0  0  0
   -4.9903   -1.4040   -4.8001 H   0  0  0  0  0  0  0  0  0  0  0  0
   -1.8519   -3.3232   -4.3130 H   0  0  0  0  0  0  0  0  0  0  0  0
   -0.4195   -3.1374   -2.3666 H   0  0  0  0  0  0  0  0  0  0  0  0
   -0.8993   -0.5134    0.2512 H   0  0  0  0  0  0  0  0  0  0  0  0
    1.5219    1.5504    4.5410 H   0  0  0  0  0  0  0  0  0  0  0  0
    0.5883    1.9785    3.1053 H   0  0  0  0  0  0  0  0  0  0  0  0
    4.4134    0.9692    0.9854 H   0  0  0  0  0  0  0  0  0  0  0  0
    4.2892    0.8120   -1.4820 H   0  0  0  0  0  0  0  0  0  0  0  0
    2.6790    2.2131   -2.7408 H   0  0  0  0  0  0  0  0  0  0  0  0
    1.1959    3.7979   -1.5418 H   0  0  0  0  0  0  0  0  0  0  0  0
    1.2917    3.9651    0.9288 H   0  0  0  0  0  0  0  0  0  0  0  0
    2.9903   -0.5380    4.5454 H   0  0  0  0  0  0  0  0  0  0  0  0
    3.2133   -2.8262    3.7032 H   0  0  0  0  0  0  0  0  0  0  0  0
   -4.1206    0.0936   -3.0211 H   0  0  0  0  0  0  0  0  0  0  0  0
   -4.2987   -0.4138    0.2958 H   0  0  0  0  0  0  0  0  0  0  0  0
   -4.7124    1.4429    1.8747 H   0  0  0  0  0  0  0  0  0  0  0  0
   -3.4128    3.5491    1.6938 H   0  0  0  0  0  0  0  0  0  0  0  0
   -1.6958    3.7971   -0.0812 H   0  0  0  0  0  0  0  0  0  0  0  0
   -1.2700    1.9461   -1.6648 H   0  0  0  0  0  0  0  0  0  0  0  0
  1  2  1  0
  2  3  2  0
  3  4  1  0
  4  5  2  0
  5  6  1  0
  6  7  1  0
  7  8  2  0
  7  9  1  0
  9 10  2  0
 10 11  1  0
 10 12  1  0
 12 13  1  0
 13 14  1  0
 14 15  2  0
 14 16  2  0
 14 17  1  0
 17 18  2  0
 18 19  1  0
 19 20  2  0
 20 21  1  0
 21 22  2  0
 12 23  2  0
 23 24  1  0
 24 25  2  0
 25 26  1  0
 26 27  1  0
 26 28  1  0
 26 29  1  0
  5 30  1  0
 30 31  2  0
 30 32  1  0
 32 33  2  0
 33 34  1  0
 34 35  2  0
 35 36  1  0
 36 37  2  0
 31  2  1  0
 37 32  1  0
 25  9  1  0
 22 17  1  0
  1 38  1  0
  1 39  1  0
  1 40  1  0
  3 41  1  0
  4 42  1  0
  6 43  1  0
 13 44  1  0
 13 45  1  0
 18 46  1  0
 19 47  1  0
 20 48  1  0
 21 49  1  0
 22 50  1  0
 23 51  1  0
 24 52  1  0
 31 53  1  0
 33 54  1  0
 34 55  1  0
 35 56  1  0
 36 57  1  0
 37 58  1  0
M  END
$$$$
