BB_39
     RDKit          3D

 62 66  0  0  0  0  0  0  0  0999 V2000
    0.9861   -1.5176   -0.8934 C   0  0  0  0  0  0  0  0  0  0  0  0
    2.1381   -2.1190   -1.4261 C   0  0  0  0  0  0  0  0  0  0  0  0
    3.3428   -1.4302   -1.4191 C   0  0  0  0  0  0  0  0  0  0  0  0
    3.4592   -0.1344   -0.9206 C   0  0  0  0  0  0  0  0  0  0  0  0
    2.3452    0.4547   -0.3395 C   0  0  0  0  0  0  0  0  0  0  0  0
    1.1013   -0.2027   -0.3225 C   0  0  0  0  0  0  0  0  0  0  0  0
   -0.0471    0.4287    0.2561 N   0  0  0  0  0  0  0  0  0  0  0  0
   -0.4598    1.6024   -0.5643 C   0  0  0  0  0  0  0  0  0  0  0  0
   -1.7839    2.1629   -0.0285 C   0  0  0  0  0  0  0  0  0  0  0  0
   -1.6772    2.4816    1.4512 C   0  0  0  0  0  0  0  0  0  0  0  0
   -1.1383    1.3288    2.2769 C   0  0  0  0  0  0  0  0  0  0  0  0
    0.1719    0.7995    1.6796 C   0  0  0  0  0  0  0  0  0  0  0  0
   -1.3395    3.8968    1.8684 C   0  0  0  0  0  0  0  0  0  0  0  0
   -2.7335    3.3703    2.0684 C   0  0  0  0  0  0  0  0  0  0  0  0
    4.7695    0.4524   -0.8822 N   0  0  0  0  0  0  0  0  0  0  0  0
    5.0053    2.0936   -1.1860 S   0  0  0  0  0  6  0  0  0  0  0  0
    5.6351    2.7055    0.3692 C   0  0  0  0  0  0  0  0  0  0  0  0
    4.7774    2.3863    1.5738 C   0  0  0  0  0  0  0  0  0  0  0  0
    3.6057    3.1889    1.6438 O   0  0  0  0  0  0  0  0  0  0  0  0
    3.7649    2.7610   -1.5062 O   0  0  0  0  0  0  0  0  0  0  0  0
    6.1186    2.1308   -2.1144 O   0  0  0  0  0  0  0  0  0  0  0  0
    2.1570   -3.3458   -1.9504 N   0  0  0  0  0  0  0  0  0  0  0  0
    0.9993   -4.0088   -1.9637 C   0  0  0  0  0  0  0  0  0  0  0  0
   -0.1671   -3.5591   -1.5064 N   0  0  0  0  0  0  0  0  0  0  0  0
   -0.1843   -2.3210   -0.9744 C   0  0  0  0  0  0  0  0  0  0  0  0
   -1.4074   -1.7904   -0.5013 N   0  0  0  0  0  0  0  0  0  0  0  0
   -2.7246   -2.2710   -0.4687 C   0  0  0  0  0  0  0  0  0  0  0  0
   -3.6748   -1.5727    0.2925 C   0  0  0  0  0  0  0  0  0  0  0  0
   -5.0065   -1.9899    0.3615 C   0  0  0  0  0  0  0  0  0  0  0  0
   -5.4167   -3.1234   -0.3331 C   0  0  0  0  0  0  0  0  0  0  0  0
   -4.4949   -3.8475   -1.0923 C   0  0  0  0  0  0  0  0  0  0  0  0
   -3.1620   -3.4047   -1.1621 C   0  0  0  0  0  0  0  0  0  0  0  0
   -4.9301   -5.0490   -1.8778 C   0  0  0  0  0  0  0  0  0  0  0  0
    4.2139   -1.9340   -1.8325 H   0  0  0  0  0  0  0  0  0  0  0  0
    2.4204    1.4435    0.0993 H   0  0  0  0  0  0  0  0  0  0  0  0
   -0.6017    1.3013   -1.6096 H   0  0  0  0  0  0  0  0  0  0  0  0
    0.3050    2.3893   -0.5353 H   0  0  0  0  0  0  0  0  0  0  0  0
   -2.0622    3.0521   -0.6065 H   0  0  0  0  0  0  0  0  0  0  0  0
   -2.5818    1.4252   -0.1724 H   0  0  0  0  0  0  0  0  0  0  0  0
   -1.8863    0.5277    2.2954 H   0  0  0  0  0  0  0  0  0  0  0  0
   -0.9674    1.6320    3.3167 H   0  0  0  0  0  0  0  0  0  0  0  0
    0.9444    1.5721    1.7773 H   0  0  0  0  0  0  0  0  0  0  0  0
    0.4923   -0.0806    2.2504 H   0  0  0  0  0  0  0  0  0  0  0  0
   -0.7242    4.0497    2.7484 H   0  0  0  0  0  0  0  0  0  0  0  0
   -1.1867    4.6460    1.0989 H   0  0  0  0  0  0  0  0  0  0  0  0
   -3.0577    3.1665    3.0832 H   0  0  0  0  0  0  0  0  0  0  0  0
   -3.5196    3.7628    1.4322 H   0  0  0  0  0  0  0  0  0  0  0  0
    5.4841   -0.0746   -1.3909 H   0  0  0  0  0  0  0  0  0  0  0  0
    6.6274    2.2579    0.4912 H   0  0  0  0  0  0  0  0  0  0  0  0
    5.7532    3.7868    0.2437 H   0  0  0  0  0  0  0  0  0  0  0  0
    5.3494    2.5849    2.4866 H   0  0  0  0  0  0  0  0  0  0  0  0
    4.4786    1.3362    1.6099 H   0  0  0  0  0  0  0  0  0  0  0  0
    3.8686    4.1263    1.6614 H   0  0  0  0  0  0  0  0  0  0  0  0
    1.0077   -5.0064   -2.3883 H   0  0  0  0  0  0  0  0  0  0  0  0
   -1.2358   -0.9314    0.0257 H   0  0  0  0  0  0  0  0  0  0  0  0
   -3.3823   -0.6852    0.8458 H   0  0  0  0  0  0  0  0  0  0  0  0
   -5.7208   -1.4271    0.9558 H   0  0  0  0  0  0  0  0  0  0  0  0
   -6.4560   -3.4374   -0.2803 H   0  0  0  0  0  0  0  0  0  0  0  0
   -2.4681   -3.9617   -1.7839 H   0  0  0  0  0  0  0  0  0  0  0  0
   -5.7877   -5.5379   -1.4036 H   0  0  0  0  0  0  0  0  0  0  0  0
   -4.1256   -5.7898   -1.9346 H   0  0  0  0  0  0  0  0  0  0  0  0
   -5.2109   -4.7509   -2.8926 H   0  0  0  0  0  0  0  0  0  0  0  0
  1  2  1  0
  2  3  2  0
  3  4  1  0
  4  5  2  0
  5  6  1  0
  6  7  1  0
  7  8  1  0
  8  9  1  0
  9 10  1  0
 10 11  1  0
 11 12  1  0
 10 13  1  0
 13 14  1  0
  4 15  1  0
 15 16  1  0
 16 17  1  0
 17 18  1  0
 18 19  1  0
 16 20  2  0
 16 21  2  0
  2 22  1  0
 22 23  2  0
 23 24  1  0
 24 25  2  0
 25 26  1  0
 26 27  1  0
 27 28  2  0
 28 29  1  0
 29 30  2  0
 30 31  1  0
 31 32  2  0
 31 33  1  0
  6  1  2  0
 12  7  1  0
 32 27  1  0
 25  1  1  0
 14 10  1  0
  3 34  1  0
  5 35  1  0
  8 36  1  0
  8 37  1  0
  9 38  1  0
  9 39  1  0
 11 40  1  0
 11 41  1  0
 12 42  1  0
 12 43  1  0
 13 44  1  0
 13 45  1  0
 14 46  1  0
 14 47  1  0
 15 48  1  0
 17 49  1  0
 17 50  1  0
 18 51  1  0
 18 52  1  0
 19 53  1  0
 23 54  1  0
 26 55  1  0
 28 56  1  0
 29 57  1  0
 30 58  1  0
 32 59  1  0
 33 60  1  0
 33 61  1  0
 33 62  1  0
M  END
$$$$
