BB_36
     RDKit          3D

 74 77  0  0  0  0  0  0  0  0999 V2000
   -1.8398    1.0487   -0.0076 C   0  0  0  0  0  0  0  0  0  0  0  0
   -0.6215    0.3980    0.2748 C   0  0  0  0  0  0  0  0  0  0  0  0
   -0.4949   -0.9706    0.2776 N   0  0  0  0  0  0  0  0  0  0  0  0
   -1.6177   -1.6553   -0.0348 C   0  0  0  0  0  0  0  0  0  0  0  0
   -2.8197   -1.0423   -0.3591 C   0  0  0  0  0  0  0  0  0  0  0  0
   -2.9355    0.2992   -0.3280 N   0  0  0  0  0  0  0  0  0  0  0  0
   -3.9872   -1.7292   -0.6861 N   0  0  0  0  0  0  0  0  0  0  0  0
   -4.0633   -2.4013   -2.0191 C   0  0  0  0  0  0  0  0  0  0  0  0
   -5.5378   -2.8836   -2.1676 C   0  0  0  0  0  0  0  0  0  0  0  0
   -5.9085   -3.7086   -1.0620 O   0  0  0  0  0  0  0  0  0  0  0  0
   -3.7537   -1.4261   -3.1646 C   0  0  0  0  0  0  0  0  0  0  0  0
   -3.1418   -3.6279   -2.0910 C   0  0  0  0  0  0  0  0  0  0  0  0
    0.6775    1.1161    0.5639 C   0  0  0  0  0  0  0  0  0  0  0  0
    1.6812    0.2416    0.9327 N   0  0  0  0  0  0  0  0  0  0  0  0
    3.0009    0.5082    1.2819 C   0  0  0  0  0  0  0  0  0  0  0  0
    3.5477    1.7859    1.3409 C   0  0  0  0  0  0  0  0  0  0  0  0
    4.8879    1.9435    1.7046 C   0  0  0  0  0  0  0  0  0  0  0  0
    5.6513    0.8250    2.0033 C   0  0  0  0  0  0  0  0  0  0  0  0
    5.0192   -0.4025    1.9199 C   0  0  0  0  0  0  0  0  0  0  0  0
    3.7192   -0.5969    1.5608 N   0  0  0  0  0  0  0  0  0  0  0  0
    5.9121   -1.9112    2.2598 S   0  0  0  0  0  6  0  0  0  0  0  0
    5.6161   -2.9054    0.9360 N   0  0  0  0  0  0  0  0  0  0  0  0
    6.0249   -2.6627   -0.4637 C   0  0  0  0  0  0  0  0  0  0  0  0
    6.1171   -4.0529   -1.1212 C   0  0  0  0  0  0  0  0  0  0  0  0
    4.9536   -1.8487   -1.1953 C   0  0  0  0  0  0  0  0  0  0  0  0
    7.3873   -1.9798   -0.5904 C   0  0  0  0  0  0  0  0  0  0  0  0
    7.3266   -1.6028    2.2991 O   0  0  0  0  0  0  0  0  0  0  0  0
    5.2675   -2.5488    3.3898 O   0  0  0  0  0  0  0  0  0  0  0  0
    0.8112    2.3280    0.4645 O   0  0  0  0  0  0  0  0  0  0  0  0
   -2.0191    2.4410    0.0637 N   0  0  0  0  0  0  0  0  0  0  0  0
   -2.1259    2.8872    1.4719 C   0  0  0  0  0  0  0  0  0  0  0  0
   -2.7465    4.2859    1.5657 C   0  0  0  0  0  0  0  0  0  0  0  0
   -4.1488    4.2928    0.9802 C   0  0  0  0  0  0  0  0  0  0  0  0
   -4.3599    3.2890   -0.1419 C   0  0  0  0  0  0  0  0  0  0  0  0
   -3.0390    2.9838   -0.8558 C   0  0  0  0  0  0  0  0  0  0  0  0
   -4.8769    5.6207    0.9179 C   0  0  0  0  0  0  0  0  0  0  0  0
   -5.3213    4.5768    1.8978 C   0  0  0  0  0  0  0  0  0  0  0  0
   -1.5281   -2.7346    0.0067 H   0  0  0  0  0  0  0  0  0  0  0  0
   -4.6711   -0.9642   -0.6863 H   0  0  0  0  0  0  0  0  0  0  0  0
   -6.2278   -2.0323   -2.1850 H   0  0  0  0  0  0  0  0  0  0  0  0
   -5.6846   -3.4572   -3.0887 H   0  0  0  0  0  0  0  0  0  0  0  0
   -5.4835   -3.2997   -0.2810 H   0  0  0  0  0  0  0  0  0  0  0  0
   -3.9209   -1.8992   -4.1388 H   0  0  0  0  0  0  0  0  0  0  0  0
   -4.3895   -0.5349   -3.1104 H   0  0  0  0  0  0  0  0  0  0  0  0
   -2.7119   -1.0882   -3.1398 H   0  0  0  0  0  0  0  0  0  0  0  0
   -2.0890   -3.3415   -2.1790 H   0  0  0  0  0  0  0  0  0  0  0  0
   -3.3721   -4.2394   -2.9712 H   0  0  0  0  0  0  0  0  0  0  0  0
   -3.2444   -4.2638   -1.2048 H   0  0  0  0  0  0  0  0  0  0  0  0
    1.4343   -0.7439    0.9439 H   0  0  0  0  0  0  0  0  0  0  0  0
    2.9639    2.6708    1.1141 H   0  0  0  0  0  0  0  0  0  0  0  0
    5.3236    2.9382    1.7539 H   0  0  0  0  0  0  0  0  0  0  0  0
    6.6937    0.9126    2.2900 H   0  0  0  0  0  0  0  0  0  0  0  0
    4.7636   -3.4479    1.0785 H   0  0  0  0  0  0  0  0  0  0  0  0
    5.1562   -4.5793   -1.0748 H   0  0  0  0  0  0  0  0  0  0  0  0
    6.8571   -4.6817   -0.6120 H   0  0  0  0  0  0  0  0  0  0  0  0
    6.4070   -3.9795   -2.1754 H   0  0  0  0  0  0  0  0  0  0  0  0
    5.1368   -1.8373   -2.2760 H   0  0  0  0  0  0  0  0  0  0  0  0
    4.9432   -0.8058   -0.8670 H   0  0  0  0  0  0  0  0  0  0  0  0
    3.9523   -2.2626   -1.0304 H   0  0  0  0  0  0  0  0  0  0  0  0
    8.1646   -2.5318   -0.0505 H   0  0  0  0  0  0  0  0  0  0  0  0
    7.6984   -1.9181   -1.6399 H   0  0  0  0  0  0  0  0  0  0  0  0
    7.3670   -0.9546   -0.2069 H   0  0  0  0  0  0  0  0  0  0  0  0
   -2.7483    2.1898    2.0506 H   0  0  0  0  0  0  0  0  0  0  0  0
   -1.1369    2.9105    1.9405 H   0  0  0  0  0  0  0  0  0  0  0  0
   -2.7605    4.6074    2.6136 H   0  0  0  0  0  0  0  0  0  0  0  0
   -2.1243    5.0032    1.0157 H   0  0  0  0  0  0  0  0  0  0  0  0
   -5.0842    3.6704   -0.8708 H   0  0  0  0  0  0  0  0  0  0  0  0
   -4.7796    2.3668    0.2782 H   0  0  0  0  0  0  0  0  0  0  0  0
   -2.6375    3.9180   -1.2699 H   0  0  0  0  0  0  0  0  0  0  0  0
   -3.2106    2.3328   -1.7224 H   0  0  0  0  0  0  0  0  0  0  0  0
   -4.3810    6.5030    1.3087 H   0  0  0  0  0  0  0  0  0  0  0  0
   -5.5219    5.8279    0.0711 H   0  0  0  0  0  0  0  0  0  0  0  0
   -5.1333    4.7578    2.9505 H   0  0  0  0  0  0  0  0  0  0  0  0
   -6.2634    4.0735    1.7079 H   0  0  0  0  0  0  0  0  0  0  0  0
  1  2  1  0
  2  3  2  0
  3  4  1  0
  4  5  2  0
  5  6  1  0
  5  7  1  0
  7  8  1  0
  8  9  1  0
  9 10  1  0
  8 11  1  0
  8 12  1  0
  2 13  1  0
 13 14  1  0
 14 15  1  0
 15 16  2  0
 16 17  1  0
 17 18  2  0
 18 19  1  0
 19 20  2  0
 19 21  1  0
 21 22  1  0
 22 23  1  0
 23 24  1  0
 23 25  1  0
 23 26  1  0
 21 27  2  0
 21 28  2  0
 13 29  2  0
  1 30  1  0
 30 31  1  0
 31 32  1  0
 32 33  1  0
 33 34  1  0
 34 35  1  0
 33 36  1  0
 36 37  1  0
  6  1  2  0
 20 15  1  0
 35 30  1  0
 37 33  1  0
  4 38  1  0
  7 39  1  0
  9 40  1  0
  9 41  1  0
 10 42  1  0
 11 43  1  0
 11 44  1  0
 11 45  1  0
 12 46  1  0
 12 47  1  0
 12 48  1  0
 14 49  1  0
 16 50  1  0
 17 51  1  0
 18 52  1  0
 22 53  1  0
 24 54  1  0
 24 55  1  0
 24 56  1  0
 25 57  1  0
 25 58  1  0
 25 59  1  0
 26 60  1  0
 26 61  1  0
 26 62  1  0
 31 63  1  0
 31 64  1  0
 32 65  1  0
 32 66  1  0
 34 67  1  0
 34 68  1  0
 35 69  1  0
 35 70  1  0
 36 71  1  0
 36 72  1  0
 37 73  1  0
 37 74  1  0
M  END
$$$$
