BB_38
     RDKit          3D

 74 78  0  0  0  0  0  0  0  0999 V2000
   -1.2183    0.8117    1.9430 C   0  0  0  0  0  0  0  0  0  0  0  0
   -1.7438    2.0334    2.3905 C   0  0  0  0  0  0  0  0  0  0  0  0
   -3.0619    2.3774    2.0985 C   0  0  0  0  0  0  0  0  0  0  0  0
   -3.8561    1.4942    1.3744 C   0  0  0  0  0  0  0  0  0  0  0  0
   -3.3407    0.2704    0.9359 C   0  0  0  0  0  0  0  0  0  0  0  0
   -2.0151   -0.1068    1.2265 C   0  0  0  0  0  0  0  0  0  0  0  0
   -1.4962   -1.4682    0.7799 C   0  0  0  0  0  0  0  0  0  0  0  0
   -2.3639   -2.6299    1.3097 C   0  0  0  0  0  0  0  0  0  0  0  0
   -1.8001   -3.9816    0.8691 C   0  0  0  0  0  0  0  0  0  0  0  0
   -1.6445   -4.0242   -0.6344 C   0  0  0  0  0  0  0  0  0  0  0  0
   -0.8039   -2.8976   -1.1922 C   0  0  0  0  0  0  0  0  0  0  0  0
   -1.3630   -1.5439   -0.7537 C   0  0  0  0  0  0  0  0  0  0  0  0
   -2.7947   -4.5483   -1.4662 C   0  0  0  0  0  0  0  0  0  0  0  0
   -1.5515   -5.3774   -1.3015 C   0  0  0  0  0  0  0  0  0  0  0  0
   -5.1816    1.8753    1.0150 N   0  0  0  0  0  0  0  0  0  0  0  0
   -5.3690    2.7006   -0.4503 S   0  0  0  0  0  6  0  0  0  0  0  0
   -5.3196    4.4091    0.0490 C   0  0  0  0  0  0  0  0  0  0  0  0
   -6.3959    4.7417    1.0567 C   0  0  0  0  0  0  0  0  0  0  0  0
   -6.3067    6.1171    1.4232 O   0  0  0  0  0  0  0  0  0  0  0  0
   -4.2379    2.4306   -1.3103 O   0  0  0  0  0  0  0  0  0  0  0  0
   -6.7179    2.4060   -0.8867 O   0  0  0  0  0  0  0  0  0  0  0  0
    0.2114    0.5654    2.2485 C   0  0  0  0  0  0  0  0  0  0  0  0
    1.0081    0.5182    1.1323 N   0  0  0  0  0  0  0  0  0  0  0  0
    2.3792    0.2627    1.0613 C   0  0  0  0  0  0  0  0  0  0  0  0
    3.1671    0.0100    2.1549 C   0  0  0  0  0  0  0  0  0  0  0  0
    4.4939   -0.2343    1.8914 C   0  0  0  0  0  0  0  0  0  0  0  0
    4.9929   -0.2284    0.6397 N   0  0  0  0  0  0  0  0  0  0  0  0
    4.1621    0.0289   -0.3821 C   0  0  0  0  0  0  0  0  0  0  0  0
    2.8567    0.2748   -0.1945 N   0  0  0  0  0  0  0  0  0  0  0  0
    4.6671    0.0054   -1.6932 N   0  0  0  0  0  0  0  0  0  0  0  0
    6.1207    0.1876   -1.7559 C   0  0  0  0  0  0  0  0  0  0  0  0
    6.6167   -0.0761   -3.1682 C   0  0  0  0  0  0  0  0  0  0  0  0
    5.8377    0.7626   -4.1531 C   0  0  0  0  0  0  0  0  0  0  0  0
    4.3459    0.5489   -4.0553 C   0  0  0  0  0  0  0  0  0  0  0  0
    3.8776    0.8062   -2.6327 C   0  0  0  0  0  0  0  0  0  0  0  0
    6.1222    2.0769   -3.9572 F   0  0  0  0  0  0  0  0  0  0  0  0
    6.2502    0.4722   -5.4145 F   0  0  0  0  0  0  0  0  0  0  0  0
    5.4461   -0.5265    3.0112 C   0  0  0  0  0  0  0  0  0  0  0  0
    0.5534    0.4653    3.4185 O   0  0  0  0  0  0  0  0  0  0  0  0
   -1.1198    2.7198    2.9599 H   0  0  0  0  0  0  0  0  0  0  0  0
   -3.4586    3.3263    2.4476 H   0  0  0  0  0  0  0  0  0  0  0  0
   -3.9757   -0.3897    0.3489 H   0  0  0  0  0  0  0  0  0  0  0  0
   -0.4984   -1.6290    1.2045 H   0  0  0  0  0  0  0  0  0  0  0  0
   -2.4128   -2.5945    2.4050 H   0  0  0  0  0  0  0  0  0  0  0  0
   -3.3942   -2.5431    0.9432 H   0  0  0  0  0  0  0  0  0  0  0  0
   -2.4612   -4.7821    1.2224 H   0  0  0  0  0  0  0  0  0  0  0  0
   -0.8219   -4.1474    1.3369 H   0  0  0  0  0  0  0  0  0  0  0  0
    0.2274   -3.0069   -0.8344 H   0  0  0  0  0  0  0  0  0  0  0  0
   -0.7658   -2.9358   -2.2875 H   0  0  0  0  0  0  0  0  0  0  0  0
   -2.3410   -1.3906   -1.2280 H   0  0  0  0  0  0  0  0  0  0  0  0
   -0.7075   -0.7456   -1.1211 H   0  0  0  0  0  0  0  0  0  0  0  0
   -3.6951   -4.8816   -0.9619 H   0  0  0  0  0  0  0  0  0  0  0  0
   -2.9812   -4.1039   -2.4380 H   0  0  0  0  0  0  0  0  0  0  0  0
   -0.9000   -5.4905   -2.1614 H   0  0  0  0  0  0  0  0  0  0  0  0
   -1.6138   -6.2676   -0.6851 H   0  0  0  0  0  0  0  0  0  0  0  0
   -5.8715    1.1213    1.0593 H   0  0  0  0  0  0  0  0  0  0  0  0
   -5.4457    5.0118   -0.8572 H   0  0  0  0  0  0  0  0  0  0  0  0
   -4.3208    4.6304    0.4365 H   0  0  0  0  0  0  0  0  0  0  0  0
   -6.2787    4.1534    1.9714 H   0  0  0  0  0  0  0  0  0  0  0  0
   -7.4002    4.5506    0.6651 H   0  0  0  0  0  0  0  0  0  0  0  0
   -6.6803    6.6454    0.6954 H   0  0  0  0  0  0  0  0  0  0  0  0
    0.5950    0.6766    0.2226 H   0  0  0  0  0  0  0  0  0  0  0  0
    2.7924   -0.0054    3.1679 H   0  0  0  0  0  0  0  0  0  0  0  0
    6.3908    1.2058   -1.4457 H   0  0  0  0  0  0  0  0  0  0  0  0
    6.6450   -0.5159   -1.0970 H   0  0  0  0  0  0  0  0  0  0  0  0
    6.5062   -1.1381   -3.4197 H   0  0  0  0  0  0  0  0  0  0  0  0
    7.6847    0.1584   -3.2362 H   0  0  0  0  0  0  0  0  0  0  0  0
    4.0992   -0.4758   -4.3594 H   0  0  0  0  0  0  0  0  0  0  0  0
    3.8236    1.2209   -4.7452 H   0  0  0  0  0  0  0  0  0  0  0  0
    3.9686    1.8739   -2.3926 H   0  0  0  0  0  0  0  0  0  0  0  0
    2.8131    0.5431   -2.5939 H   0  0  0  0  0  0  0  0  0  0  0  0
    5.1342   -1.4280    3.5477 H   0  0  0  0  0  0  0  0  0  0  0  0
    6.4587   -0.6909    2.6288 H   0  0  0  0  0  0  0  0  0  0  0  0
    5.4788    0.3152    3.7099 H   0  0  0  0  0  0  0  0  0  0  0  0
  1  2  2  0
  2  3  1  0
  3  4  2  0
  4  5  1  0
  5  6  2  0
  6  7  1  0
  7  8  1  0
  8  9  1  0
  9 10  1  0
 10 11  1  0
 11 12  1  0
 10 13  1  0
 13 14  1  0
  4 15  1  0
 15 16  1  0
 16 17  1  0
 17 18  1  0
 18 19  1  0
 16 20  2  0
 16 21  2  0
  1 22  1  0
 22 23  1  0
 23 24  1  0
 24 25  2  0
 25 26  1  0
 26 27  2  0
 27 28  1  0
 28 29  2  0
 28 30  1  0
 30 31  1  0
 31 32  1  0
 32 33  1  0
 33 34  1  0
 34 35  1  0
 33 36  1  0
 33 37  1  0
 26 38  1  0
 22 39  2  0
  6  1  1  0
 12  7  1  0
 29 24  1  0
 35 30  1  0
 14 10  1  0
  2 40  1  0
  3 41  1  0
  5 42  1  0
  7 43  1  0
  8 44  1  0
  8 45  1  0
  9 46  1  0
  9 47  1  0
 11 48  1  0
 11 49  1  0
 12 50  1  0
 12 51  1  0
 13 52  1  0
 13 53  1  0
 14 54  1  0
 14 55  1  0
 15 56  1  0
 17 57  1  0
 17 58  1  0
 18 59  1  0
 18 60  1  0
 19 61  1  0
 23 62  1  0
 25 63  1  0
 31 64  1  0
 31 65  1  0
 32 66  1  0
 32 67  1  0
 34 68  1  0
 34 69  1  0
 35 70  1  0
 35 71  1  0
 38 72  1  0
 38 73  1  0
 38 74  1  0
M  END
$$$$
