BB_35
     RDKit          3D

 72 76  0  0  0  0  0  0  0  0999 V2000
   -1.7172   -1.5501    0.0657 C   0  0  0  0  0  0  0  0  0  0  0  0
   -1.5382   -2.0118    1.3971 C   0  0  0  0  0  0  0  0  0  0  0  0
   -2.5077   -2.8618    1.9688 C   0  0  0  0  0  0  0  0  0  0  0  0
   -3.6387   -3.2563    1.2543 C   0  0  0  0  0  0  0  0  0  0  0  0
   -3.8095   -2.8160   -0.0497 C   0  0  0  0  0  0  0  0  0  0  0  0
   -2.8683   -1.9687   -0.6370 C   0  0  0  0  0  0  0  0  0  0  0  0
   -4.9922   -3.1774   -0.7581 N   0  0  0  0  0  0  0  0  0  0  0  0
   -6.2831   -2.0800   -0.7093 S   0  0  0  0  0  6  0  0  0  0  0  0
   -7.2488   -2.7235    0.6399 C   0  0  0  0  0  0  0  0  0  0  0  0
   -8.5196   -1.9172    0.7977 C   0  0  0  0  0  0  0  0  0  0  0  0
   -9.2758   -2.4500    1.8818 O   0  0  0  0  0  0  0  0  0  0  0  0
   -5.7955   -0.7608   -0.3732 O   0  0  0  0  0  0  0  0  0  0  0  0
   -7.0174   -2.3105   -1.9361 O   0  0  0  0  0  0  0  0  0  0  0  0
   -0.3665   -1.6633    2.2827 C   0  0  0  0  0  0  0  0  0  0  0  0
    0.6301   -0.9161    1.6952 N   0  0  0  0  0  0  0  0  0  0  0  0
    1.8261   -0.4387    2.2646 C   0  0  0  0  0  0  0  0  0  0  0  0
    2.2140   -0.6765    3.5774 C   0  0  0  0  0  0  0  0  0  0  0  0
    3.4187   -0.1583    4.0482 C   0  0  0  0  0  0  0  0  0  0  0  0
    4.2398    0.6013    3.2080 C   0  0  0  0  0  0  0  0  0  0  0  0
    3.8876    0.8673    1.8778 C   0  0  0  0  0  0  0  0  0  0  0  0
    2.6673    0.3245    1.4370 C   0  0  0  0  0  0  0  0  0  0  0  0
    4.6956    1.6243    1.0365 N   0  0  0  0  0  0  0  0  0  0  0  0
    4.1239    2.3161   -0.1248 C   0  0  0  0  0  0  0  0  0  0  0  0
    4.9341    3.5615   -0.4339 C   0  0  0  0  0  0  0  0  0  0  0  0
    6.3714    3.1863   -0.7248 C   0  0  0  0  0  0  0  0  0  0  0  0
    6.8777    1.9535   -0.0063 C   0  0  0  0  0  0  0  0  0  0  0  0
    6.1313    1.7655    1.3026 C   0  0  0  0  0  0  0  0  0  0  0  0
    6.5221    2.9962   -2.0647 F   0  0  0  0  0  0  0  0  0  0  0  0
    7.1647    4.2475   -0.4130 F   0  0  0  0  0  0  0  0  0  0  0  0
   -0.3672   -2.0629    3.4437 O   0  0  0  0  0  0  0  0  0  0  0  0
   -0.7922   -0.6444   -0.5367 N   0  0  0  0  0  0  0  0  0  0  0  0
   -0.2958   -1.1054   -1.8592 C   0  0  0  0  0  0  0  0  0  0  0  0
    0.8165   -0.1659   -2.3430 C   0  0  0  0  0  0  0  0  0  0  0  0
    0.3400    1.2749   -2.3623 C   0  0  0  0  0  0  0  0  0  0  0  0
   -0.3102    1.7196   -1.0648 C   0  0  0  0  0  0  0  0  0  0  0  0
   -1.3840    0.7215   -0.6119 C   0  0  0  0  0  0  0  0  0  0  0  0
    1.1720    2.2860   -3.1194 C   0  0  0  0  0  0  0  0  0  0  0  0
   -0.1619    1.8585   -3.6654 C   0  0  0  0  0  0  0  0  0  0  0  0
   -2.3842   -3.2214    2.9899 H   0  0  0  0  0  0  0  0  0  0  0  0
   -4.3677   -3.9108    1.7233 H   0  0  0  0  0  0  0  0  0  0  0  0
   -3.0580   -1.5974   -1.6400 H   0  0  0  0  0  0  0  0  0  0  0  0
   -4.8474   -3.4740   -1.7256 H   0  0  0  0  0  0  0  0  0  0  0  0
   -7.4784   -3.7732    0.4324 H   0  0  0  0  0  0  0  0  0  0  0  0
   -6.6492   -2.6743    1.5533 H   0  0  0  0  0  0  0  0  0  0  0  0
   -9.1343   -1.9629   -0.1070 H   0  0  0  0  0  0  0  0  0  0  0  0
   -8.2980   -0.8670    1.0138 H   0  0  0  0  0  0  0  0  0  0  0  0
  -10.0802   -1.9073    1.9648 H   0  0  0  0  0  0  0  0  0  0  0  0
    0.4463   -0.6658    0.7233 H   0  0  0  0  0  0  0  0  0  0  0  0
    1.6026   -1.2589    4.2584 H   0  0  0  0  0  0  0  0  0  0  0  0
    3.7171   -0.3409    5.0773 H   0  0  0  0  0  0  0  0  0  0  0  0
    5.1552    1.0036    3.6322 H   0  0  0  0  0  0  0  0  0  0  0  0
    2.3654    0.4772    0.4074 H   0  0  0  0  0  0  0  0  0  0  0  0
    4.1065    1.6407   -0.9889 H   0  0  0  0  0  0  0  0  0  0  0  0
    3.0937    2.6358    0.0744 H   0  0  0  0  0  0  0  0  0  0  0  0
    4.5010    4.0885   -1.2912 H   0  0  0  0  0  0  0  0  0  0  0  0
    4.8959    4.2501    0.4195 H   0  0  0  0  0  0  0  0  0  0  0  0
    6.7351    1.0705   -0.6419 H   0  0  0  0  0  0  0  0  0  0  0  0
    7.9529    2.0424    0.1837 H   0  0  0  0  0  0  0  0  0  0  0  0
    6.5341    0.8661    1.7841 H   0  0  0  0  0  0  0  0  0  0  0  0
    6.3041    2.6145    1.9750 H   0  0  0  0  0  0  0  0  0  0  0  0
   -1.1002   -1.1162   -2.6048 H   0  0  0  0  0  0  0  0  0  0  0  0
    0.1086   -2.1213   -1.7746 H   0  0  0  0  0  0  0  0  0  0  0  0
    1.6818   -0.2433   -1.6755 H   0  0  0  0  0  0  0  0  0  0  0  0
    1.1523   -0.4843   -3.3371 H   0  0  0  0  0  0  0  0  0  0  0  0
    0.4647    1.8009   -0.2941 H   0  0  0  0  0  0  0  0  0  0  0  0
   -0.7608    2.7138   -1.1686 H   0  0  0  0  0  0  0  0  0  0  0  0
   -2.2242    0.7416   -1.3182 H   0  0  0  0  0  0  0  0  0  0  0  0
   -1.7574    1.0296    0.3727 H   0  0  0  0  0  0  0  0  0  0  0  0
    1.2566    3.2932   -2.7255 H   0  0  0  0  0  0  0  0  0  0  0  0
    2.0624    1.9469   -3.6383 H   0  0  0  0  0  0  0  0  0  0  0  0
   -0.1672    1.2353   -4.5532 H   0  0  0  0  0  0  0  0  0  0  0  0
   -0.9724    2.5794   -3.6398 H   0  0  0  0  0  0  0  0  0  0  0  0
  1  2  1  0
  2  3  2  0
  3  4  1  0
  4  5  2  0
  5  6  1  0
  5  7  1  0
  7  8  1  0
  8  9  1  0
  9 10  1  0
 10 11  1  0
  8 12  2  0
  8 13  2  0
  2 14  1  0
 14 15  1  0
 15 16  1  0
 16 17  2  0
 17 18  1  0
 18 19  2  0
 19 20  1  0
 20 21  2  0
 20 22  1  0
 22 23  1  0
 23 24  1  0
 24 25  1  0
 25 26  1  0
 26 27  1  0
 25 28  1  0
 25 29  1  0
 14 30  2  0
  1 31  1  0
 31 32  1  0
 32 33  1  0
 33 34  1  0
 34 35  1  0
 35 36  1  0
 34 37  1  0
 37 38  1  0
  6  1  2  0
 21 16  1  0
 27 22  1  0
 36 31  1  0
 38 34  1  0
  3 39  1  0
  4 40  1  0
  6 41  1  0
  7 42  1  0
  9 43  1  0
  9 44  1  0
 10 45  1  0
 10 46  1  0
 11 47  1  0
 15 48  1  0
 17 49  1  0
 18 50  1  0
 19 51  1  0
 21 52  1  0
 23 53  1  0
 23 54  1  0
 24 55  1  0
 24 56  1  0
 26 57  1  0
 26 58  1  0
 27 59  1  0
 27 60  1  0
 32 61  1  0
 32 62  1  0
 33 63  1  0
 33 64  1  0
 35 65  1  0
 35 66  1  0
 36 67  1  0
 36 68  1  0
 37 69  1  0
 37 70  1  0
 38 71  1  0
 38 72  1  0
M  END
$$$$
