BB_37
     RDKit          3D

 77 82  0  0  0  0  0  0  0  0999 V2000
    1.8325   -1.1677   -1.5242 C   0  0  0  0  0  0  0  0  0  0  0  0
    2.8028   -2.0079   -2.0969 C   0  0  0  0  0  0  0  0  0  0  0  0
    4.1442   -1.7963   -1.8194 C   0  0  0  0  0  0  0  0  0  0  0  0
    4.5628   -0.7597   -0.9940 C   0  0  0  0  0  0  0  0  0  0  0  0
    3.6303    0.0751   -0.3962 C   0  0  0  0  0  0  0  0  0  0  0  0
    2.2613   -0.1139   -0.6391 C   0  0  0  0  0  0  0  0  0  0  0  0
    1.2961    0.6921    0.0308 N   0  0  0  0  0  0  0  0  0  0  0  0
    1.1785    0.3017    1.4604 C   0  0  0  0  0  0  0  0  0  0  0  0
    0.1793    1.2209    2.1699 C   0  0  0  0  0  0  0  0  0  0  0  0
    0.6156    2.6749    2.0945 C   0  0  0  0  0  0  0  0  0  0  0  0
    1.6685    2.9631    1.0399 C   0  0  0  0  0  0  0  0  0  0  0  0
    1.4201    2.1489   -0.2336 C   0  0  0  0  0  0  0  0  0  0  0  0
   -0.4285    3.7346    2.3872 C   0  0  0  0  0  0  0  0  0  0  0  0
    0.6685    3.4815    3.3766 C   0  0  0  0  0  0  0  0  0  0  0  0
    5.9517   -0.6137   -0.6981 N   0  0  0  0  0  0  0  0  0  0  0  0
    6.5227   -1.3916    0.6979 S   0  0  0  0  0  6  0  0  0  0  0  0
    7.1700   -2.9054    0.0198 C   0  0  0  0  0  0  0  0  0  0  0  0
    7.8180   -3.7283    1.1124 C   0  0  0  0  0  0  0  0  0  0  0  0
    8.3672   -4.9224    0.5599 O   0  0  0  0  0  0  0  0  0  0  0  0
    7.6444   -0.5884    1.1381 O   0  0  0  0  0  0  0  0  0  0  0  0
    5.4179   -1.6826    1.5829 O   0  0  0  0  0  0  0  0  0  0  0  0
    2.5114   -3.0234   -2.9119 N   0  0  0  0  0  0  0  0  0  0  0  0
    1.2194   -3.2232   -3.1824 C   0  0  0  0  0  0  0  0  0  0  0  0
    0.1995   -2.5001   -2.7235 N   0  0  0  0  0  0  0  0  0  0  0  0
    0.4961   -1.4744   -1.9024 C   0  0  0  0  0  0  0  0  0  0  0  0
   -0.5428   -0.6340   -1.4391 N   0  0  0  0  0  0  0  0  0  0  0  0
   -1.9423   -0.6587   -1.5282 C   0  0  0  0  0  0  0  0  0  0  0  0
   -2.6682   -1.6512   -2.1792 C   0  0  0  0  0  0  0  0  0  0  0  0
   -4.0620   -1.5760   -2.2782 C   0  0  0  0  0  0  0  0  0  0  0  0
   -4.7400   -0.4970   -1.6882 C   0  0  0  0  0  0  0  0  0  0  0  0
   -4.0644    0.5264   -1.0102 C   0  0  0  0  0  0  0  0  0  0  0  0
   -2.6606    0.4239   -0.9796 C   0  0  0  0  0  0  0  0  0  0  0  0
   -4.7128    1.6206   -0.4299 N   0  0  0  0  0  0  0  0  0  0  0  0
   -6.1334    1.8890   -0.6940 C   0  0  0  0  0  0  0  0  0  0  0  0
   -7.0042    1.1855    0.3358 C   0  0  0  0  0  0  0  0  0  0  0  0
   -6.5479    1.5634    1.7301 C   0  0  0  0  0  0  0  0  0  0  0  0
   -5.0687    1.3474    1.9732 C   0  0  0  0  0  0  0  0  0  0  0  0
   -4.2696    2.0709    0.9006 C   0  0  0  0  0  0  0  0  0  0  0  0
   -7.2611    0.8525    2.6426 F   0  0  0  0  0  0  0  0  0  0  0  0
   -6.8498    2.8711    1.9585 F   0  0  0  0  0  0  0  0  0  0  0  0
   -4.8286   -2.6716   -2.9598 C   0  0  0  0  0  0  0  0  0  0  0  0
    4.8784   -2.4553   -2.2760 H   0  0  0  0  0  0  0  0  0  0  0  0
    3.9601    0.8486    0.2908 H   0  0  0  0  0  0  0  0  0  0  0  0
    0.8212   -0.7331    1.5291 H   0  0  0  0  0  0  0  0  0  0  0  0
    2.1498    0.3555    1.9690 H   0  0  0  0  0  0  0  0  0  0  0  0
    0.0737    0.9015    3.2130 H   0  0  0  0  0  0  0  0  0  0  0  0
   -0.8048    1.1177    1.6973 H   0  0  0  0  0  0  0  0  0  0  0  0
    2.6562    2.7183    1.4498 H   0  0  0  0  0  0  0  0  0  0  0  0
    1.6878    4.0300    0.7876 H   0  0  0  0  0  0  0  0  0  0  0  0
    0.4708    2.4727   -0.6786 H   0  0  0  0  0  0  0  0  0  0  0  0
    2.1974    2.3727   -0.9746 H   0  0  0  0  0  0  0  0  0  0  0  0
   -0.4039    4.6650    1.8301 H   0  0  0  0  0  0  0  0  0  0  0  0
   -1.4311    3.4207    2.6575 H   0  0  0  0  0  0  0  0  0  0  0  0
    0.4045    3.0013    4.3127 H   0  0  0  0  0  0  0  0  0  0  0  0
    1.4378    4.2392    3.4839 H   0  0  0  0  0  0  0  0  0  0  0  0
    6.2956    0.3497   -0.6971 H   0  0  0  0  0  0  0  0  0  0  0  0
    6.3495   -3.4623   -0.4414 H   0  0  0  0  0  0  0  0  0  0  0  0
    7.8972   -2.6522   -0.7578 H   0  0  0  0  0  0  0  0  0  0  0  0
    8.6183   -3.1804    1.6207 H   0  0  0  0  0  0  0  0  0  0  0  0
    7.0823   -4.0183    1.8694 H   0  0  0  0  0  0  0  0  0  0  0  0
    9.2035   -4.6917    0.1186 H   0  0  0  0  0  0  0  0  0  0  0  0
    0.9769   -4.0497   -3.8411 H   0  0  0  0  0  0  0  0  0  0  0  0
   -0.1679    0.0504   -0.7797 H   0  0  0  0  0  0  0  0  0  0  0  0
   -2.1593   -2.5000   -2.6240 H   0  0  0  0  0  0  0  0  0  0  0  0
   -5.8222   -0.4889   -1.7682 H   0  0  0  0  0  0  0  0  0  0  0  0
   -2.0840    1.2356   -0.5445 H   0  0  0  0  0  0  0  0  0  0  0  0
   -6.4247    1.6195   -1.7154 H   0  0  0  0  0  0  0  0  0  0  0  0
   -6.2969    2.9728   -0.6269 H   0  0  0  0  0  0  0  0  0  0  0  0
   -8.0508    1.4768    0.1945 H   0  0  0  0  0  0  0  0  0  0  0  0
   -6.9589    0.0972    0.2195 H   0  0  0  0  0  0  0  0  0  0  0  0
   -4.8428    0.2744    1.9701 H   0  0  0  0  0  0  0  0  0  0  0  0
   -4.7939    1.7312    2.9618 H   0  0  0  0  0  0  0  0  0  0  0  0
   -3.2012    1.9256    1.0818 H   0  0  0  0  0  0  0  0  0  0  0  0
   -4.4366    3.1531    0.9778 H   0  0  0  0  0  0  0  0  0  0  0  0
   -5.1010   -3.4441   -2.2342 H   0  0  0  0  0  0  0  0  0  0  0  0
   -4.2335   -3.1288   -3.7573 H   0  0  0  0  0  0  0  0  0  0  0  0
   -5.7415   -2.2808   -3.4213 H   0  0  0  0  0  0  0  0  0  0  0  0
  1  2  1  0
  2  3  2  0
  3  4  1  0
  4  5  2  0
  5  6  1  0
  6  7  1  0
  7  8  1  0
  8  9  1  0
  9 10  1  0
 10 11  1  0
 11 12  1  0
 10 13  1  0
 13 14  1  0
  4 15  1  0
 15 16  1  0
 16 17  1  0
 17 18  1  0
 18 19  1  0
 16 20  2  0
 16 21  2  0
  2 22  1  0
 22 23  2  0
 23 24  1  0
 24 25  2  0
 25 26  1  0
 26 27  1  0
 27 28  2  0
 28 29  1  0
 29 30  2  0
 30 31  1  0
 31 32  2  0
 31 33  1  0
 33 34  1  0
 34 35  1  0
 35 36  1  0
 36 37  1  0
 37 38  1  0
 36 39  1  0
 36 40  1  0
 29 41  1  0
  6  1  2  0
 12  7  1  0
 32 27  1  0
 38 33  1  0
 25  1  1  0
 14 10  1  0
  3 42  1  0
  5 43  1  0
  8 44  1  0
  8 45  1  0
  9 46  1  0
  9 47  1  0
 11 48  1  0
 11 49  1  0
 12 50  1  0
 12 51  1  0
 13 52  1  0
 13 53  1  0
 14 54  1  0
 14 55  1  0
 15 56  1  0
 17 57  1  0
 17 58  1  0
 18 59  1  0
 18 60  1  0
 19 61  1  0
 23 62  1  0
 26 63  1  0
 28 64  1  0
 30 65  1  0
 32 66  1  0
 34 67  1  0
 34 68  1  0
 35 69  1  0
 35 70  1  0
 37 71  1  0
 37 72  1  0
 38 73  1  0
 38 74  1  0
 41 75  1  0
 41 76  1  0
 41 77  1  0
M  END
$$$$
