BB_44
     RDKit          3D

 67 71  0  0  0  0  0  0  0  0999 V2000
    0.0381   -1.1955   -0.8001 C   0  0  0  0  0  0  0  0  0  0  0  0
    0.1143   -2.6095   -0.8042 C   0  0  0  0  0  0  0  0  0  0  0  0
    0.8770   -3.3109    0.1283 C   0  0  0  0  0  0  0  0  0  0  0  0
    1.5993   -2.6107    1.0810 C   0  0  0  0  0  0  0  0  0  0  0  0
    1.5578   -1.2168    1.0935 C   0  0  0  0  0  0  0  0  0  0  0  0
    0.8085   -0.4792    0.1483 C   0  0  0  0  0  0  0  0  0  0  0  0
    0.9554    0.9150    0.2394 N   0  0  0  0  0  0  0  0  0  0  0  0
    0.0383    1.5542    1.1982 C   0  0  0  0  0  0  0  0  0  0  0  0
    0.5856    2.9365    1.5828 C   0  0  0  0  0  0  0  0  0  0  0  0
    0.8618    3.7718    0.3460 C   0  0  0  0  0  0  0  0  0  0  0  0
    1.7273    3.0527   -0.6745 C   0  0  0  0  0  0  0  0  0  0  0  0
    1.1325    1.6763   -1.0094 C   0  0  0  0  0  0  0  0  0  0  0  0
    1.0372    5.2644    0.5116 C   0  0  0  0  0  0  0  0  0  0  0  0
   -0.2049    4.7274   -0.1441 C   0  0  0  0  0  0  0  0  0  0  0  0
    2.4220   -3.2850    2.0249 N   0  0  0  0  0  0  0  0  0  0  0  0
    3.7450   -4.1857    1.5011 S   0  0  0  0  0  6  0  0  0  0  0  0
    4.8308   -2.9612    0.7876 C   0  0  0  0  0  0  0  0  0  0  0  0
    4.5924   -2.7556   -0.6908 C   0  0  0  0  0  0  0  0  0  0  0  0
    5.4928   -1.7567   -1.1679 O   0  0  0  0  0  0  0  0  0  0  0  0
    4.3764   -4.6544    2.7186 O   0  0  0  0  0  0  0  0  0  0  0  0
    3.3302   -5.1233    0.4807 O   0  0  0  0  0  0  0  0  0  0  0  0
   -0.8475   -0.5758   -1.8050 C   0  0  0  0  0  0  0  0  0  0  0  0
   -0.2736   -0.5608   -3.0482 N   0  0  0  0  0  0  0  0  0  0  0  0
   -0.9541    0.0216   -4.0506 C   0  0  0  0  0  0  0  0  0  0  0  0
   -2.1923    0.6010   -3.8871 C   0  0  0  0  0  0  0  0  0  0  0  0
   -2.7766    0.5637   -2.6219 C   0  0  0  0  0  0  0  0  0  0  0  0
   -2.1369   -0.0466   -1.5270 C   0  0  0  0  0  0  0  0  0  0  0  0
   -2.7741   -0.0988   -0.2806 N   0  0  0  0  0  0  0  0  0  0  0  0
   -2.7996   -1.3827    0.4385 C   0  0  0  0  0  0  0  0  0  0  0  0
   -4.1560   -1.6068    1.0845 C   0  0  0  0  0  0  0  0  0  0  0  0
   -4.4880   -0.4622    2.0183 C   0  0  0  0  0  0  0  0  0  0  0  0
   -3.9778    0.8965    1.5823 C   0  0  0  0  0  0  0  0  0  0  0  0
   -3.7774    0.9099    0.0775 C   0  0  0  0  0  0  0  0  0  0  0  0
   -3.9981   -0.7310    3.2584 F   0  0  0  0  0  0  0  0  0  0  0  0
   -5.8410   -0.4055    2.1600 F   0  0  0  0  0  0  0  0  0  0  0  0
   -0.4441   -3.1716   -1.5525 H   0  0  0  0  0  0  0  0  0  0  0  0
    0.8953   -4.3973    0.0979 H   0  0  0  0  0  0  0  0  0  0  0  0
    2.1517   -0.6643    1.8184 H   0  0  0  0  0  0  0  0  0  0  0  0
   -0.9518    1.6716    0.7477 H   0  0  0  0  0  0  0  0  0  0  0  0
   -0.0732    0.9544    2.1096 H   0  0  0  0  0  0  0  0  0  0  0  0
    1.5231    2.8176    2.1404 H   0  0  0  0  0  0  0  0  0  0  0  0
   -0.1259    3.4375    2.2497 H   0  0  0  0  0  0  0  0  0  0  0  0
    2.7341    2.9289   -0.2563 H   0  0  0  0  0  0  0  0  0  0  0  0
    1.8279    3.6407   -1.5943 H   0  0  0  0  0  0  0  0  0  0  0  0
    0.1744    1.8327   -1.5147 H   0  0  0  0  0  0  0  0  0  0  0  0
    1.8139    1.1539   -1.6910 H   0  0  0  0  0  0  0  0  0  0  0  0
    1.7618    5.7744   -0.1141 H   0  0  0  0  0  0  0  0  0  0  0  0
    0.9439    5.6916    1.5041 H   0  0  0  0  0  0  0  0  0  0  0  0
   -1.1368    4.7967    0.4058 H   0  0  0  0  0  0  0  0  0  0  0  0
   -0.3185    4.8780   -1.2121 H   0  0  0  0  0  0  0  0  0  0  0  0
    2.6095   -2.8020    2.9037 H   0  0  0  0  0  0  0  0  0  0  0  0
    4.7418   -2.0323    1.3597 H   0  0  0  0  0  0  0  0  0  0  0  0
    5.8552   -3.3182    0.9463 H   0  0  0  0  0  0  0  0  0  0  0  0
    3.5755   -2.4196   -0.9013 H   0  0  0  0  0  0  0  0  0  0  0  0
    4.7764   -3.6759   -1.2541 H   0  0  0  0  0  0  0  0  0  0  0  0
    5.2744   -1.6065   -2.1054 H   0  0  0  0  0  0  0  0  0  0  0  0
   -0.4594    0.0114   -5.0172 H   0  0  0  0  0  0  0  0  0  0  0  0
   -2.7046    1.0607   -4.7247 H   0  0  0  0  0  0  0  0  0  0  0  0
   -3.7673    0.9960   -2.5186 H   0  0  0  0  0  0  0  0  0  0  0  0
   -2.0190   -1.3855    1.2078 H   0  0  0  0  0  0  0  0  0  0  0  0
   -2.6214   -2.2238   -0.2408 H   0  0  0  0  0  0  0  0  0  0  0  0
   -4.9279   -1.6893    0.3090 H   0  0  0  0  0  0  0  0  0  0  0  0
   -4.1567   -2.5536    1.6358 H   0  0  0  0  0  0  0  0  0  0  0  0
   -4.6875    1.6784    1.8737 H   0  0  0  0  0  0  0  0  0  0  0  0
   -3.0293    1.1156    2.0872 H   0  0  0  0  0  0  0  0  0  0  0  0
   -4.7274    0.7139   -0.4349 H   0  0  0  0  0  0  0  0  0  0  0  0
   -3.4331    1.9095   -0.2152 H   0  0  0  0  0  0  0  0  0  0  0  0
  1  2  2  0
  2  3  1  0
  3  4  2  0
  4  5  1  0
  5  6  2  0
  6  7  1  0
  7  8  1  0
  8  9  1  0
  9 10  1  0
 10 11  1  0
 11 12  1  0
 10 13  1  0
 13 14  1  0
  4 15  1  0
 15 16  1  0
 16 17  1  0
 17 18  1  0
 18 19  1  0
 16 20  2  0
 16 21  2  0
  1 22  1  0
 22 23  2  0
 23 24  1  0
 24 25  2  0
 25 26  1  0
 26 27  2  0
 27 28  1  0
 28 29  1  0
 29 30  1  0
 30 31  1  0
 31 32  1  0
 32 33  1  0
 31 34  1  0
 31 35  1  0
  6  1  1  0
 12  7  1  0
 27 22  1  0
 33 28  1  0
 14 10  1  0
  2 36  1  0
  3 37  1  0
  5 38  1  0
  8 39  1  0
  8 40  1  0
  9 41  1  0
  9 42  1  0
 11 43  1  0
 11 44  1  0
 12 45  1  0
 12 46  1  0
 13 47  1  0
 13 48  1  0
 14 49  1  0
 14 50  1  0
 15 51  1  0
 17 52  1  0
 17 53  1  0
 18 54  1  0
 18 55  1  0
 19 56  1  0
 24 57  1  0
 25 58  1  0
 26 59  1  0
 29 60  1  0
 29 61  1  0
 30 62  1  0
 30 63  1  0
 32 64  1  0
 32 65  1  0
 33 66  1  0
 33 67  1  0
M  END
$$$$
