BB_41
     RDKit          3D

 70 75  0  0  0  0  0  0  0  0999 V2000
   -0.3858    0.8865   -0.7228 C   0  0  0  0  0  0  0  0  0  0  0  0
   -0.2894    2.2882   -0.8375 C   0  0  0  0  0  0  0  0  0  0  0  0
   -1.4150    3.0960   -0.7045 C   0  0  0  0  0  0  0  0  0  0  0  0
   -2.6435    2.5078   -0.4405 C   0  0  0  0  0  0  0  0  0  0  0  0
   -2.7552    1.1190   -0.3199 C   0  0  0  0  0  0  0  0  0  0  0  0
   -1.6338    0.2734   -0.4326 C   0  0  0  0  0  0  0  0  0  0  0  0
   -1.7615   -1.1100   -0.2537 N   0  0  0  0  0  0  0  0  0  0  0  0
   -0.9443   -1.7204    0.8179 C   0  0  0  0  0  0  0  0  0  0  0  0
   -1.7576   -2.7166    1.6538 C   0  0  0  0  0  0  0  0  0  0  0  0
   -2.3902   -3.7875    0.7829 C   0  0  0  0  0  0  0  0  0  0  0  0
   -2.8174   -3.3044   -0.5936 C   0  0  0  0  0  0  0  0  0  0  0  0
   -3.0184   -1.7845   -0.6079 C   0  0  0  0  0  0  0  0  0  0  0  0
   -1.8860   -5.2123    0.9000 C   0  0  0  0  0  0  0  0  0  0  0  0
   -3.2237   -4.8502    1.4713 C   0  0  0  0  0  0  0  0  0  0  0  0
   -3.8062    3.3287   -0.3440 N   0  0  0  0  0  0  0  0  0  0  0  0
   -4.6709    3.6094   -1.7737 S   0  0  0  0  0  6  0  0  0  0  0  0
   -4.0424    5.2011   -2.2604 C   0  0  0  0  0  0  0  0  0  0  0  0
   -4.7648    5.6864   -3.4984 C   0  0  0  0  0  0  0  0  0  0  0  0
   -4.2420    6.9586   -3.8730 O   0  0  0  0  0  0  0  0  0  0  0  0
   -4.3166    2.6267   -2.7728 O   0  0  0  0  0  0  0  0  0  0  0  0
   -6.0460    3.7845   -1.3539 O   0  0  0  0  0  0  0  0  0  0  0  0
    0.8403    0.1177   -0.9579 C   0  0  0  0  0  0  0  0  0  0  0  0
    1.8903    0.1352   -0.1671 N   0  0  0  0  0  0  0  0  0  0  0  0
    2.9034   -0.6803   -0.6736 C   0  0  0  0  0  0  0  0  0  0  0  0
    2.5862   -1.2924   -1.8909 C   0  0  0  0  0  0  0  0  0  0  0  0
    1.0049   -0.8168   -2.3843 S   0  0  0  0  0  0  0  0  0  0  0  0
    3.4713   -2.1521   -2.5586 C   0  0  0  0  0  0  0  0  0  0  0  0
    4.7116   -2.3949   -1.9788 C   0  0  0  0  0  0  0  0  0  0  0  0
    5.0513   -1.8010   -0.7669 C   0  0  0  0  0  0  0  0  0  0  0  0
    4.1741   -0.9379   -0.0639 C   0  0  0  0  0  0  0  0  0  0  0  0
    4.6577   -0.3934    1.1667 N   0  0  0  0  0  0  0  0  0  0  0  0
    3.9815    0.8358    1.6162 C   0  0  0  0  0  0  0  0  0  0  0  0
    4.7940    1.4510    2.7448 C   0  0  0  0  0  0  0  0  0  0  0  0
    4.9678    0.4328    3.8502 C   0  0  0  0  0  0  0  0  0  0  0  0
    5.5567   -0.8786    3.3782 C   0  0  0  0  0  0  0  0  0  0  0  0
    4.7397   -1.4246    2.2182 C   0  0  0  0  0  0  0  0  0  0  0  0
    3.7656    0.1965    4.4416 F   0  0  0  0  0  0  0  0  0  0  0  0
    5.7636    0.9555    4.8206 F   0  0  0  0  0  0  0  0  0  0  0  0
    0.6746    2.7483   -1.0488 H   0  0  0  0  0  0  0  0  0  0  0  0
   -1.3191    4.1731   -0.7984 H   0  0  0  0  0  0  0  0  0  0  0  0
   -3.7348    0.6990   -0.1164 H   0  0  0  0  0  0  0  0  0  0  0  0
   -0.1034   -2.2516    0.3572 H   0  0  0  0  0  0  0  0  0  0  0  0
   -0.5334   -0.9610    1.4948 H   0  0  0  0  0  0  0  0  0  0  0  0
   -1.1086   -3.1640    2.4159 H   0  0  0  0  0  0  0  0  0  0  0  0
   -2.5528   -2.1806    2.1877 H   0  0  0  0  0  0  0  0  0  0  0  0
   -3.7456   -3.7955   -0.9073 H   0  0  0  0  0  0  0  0  0  0  0  0
   -2.0426   -3.5751   -1.3222 H   0  0  0  0  0  0  0  0  0  0  0  0
   -3.3375   -1.4803   -1.6119 H   0  0  0  0  0  0  0  0  0  0  0  0
   -3.8123   -1.5192    0.1011 H   0  0  0  0  0  0  0  0  0  0  0  0
   -1.8670   -5.8310    0.0090 H   0  0  0  0  0  0  0  0  0  0  0  0
   -1.0796   -5.4281    1.5923 H   0  0  0  0  0  0  0  0  0  0  0  0
   -3.3196   -4.8164    2.5514 H   0  0  0  0  0  0  0  0  0  0  0  0
   -4.1070   -5.2323    0.9713 H   0  0  0  0  0  0  0  0  0  0  0  0
   -4.4639    3.0578    0.3903 H   0  0  0  0  0  0  0  0  0  0  0  0
   -4.1843    5.8994   -1.4297 H   0  0  0  0  0  0  0  0  0  0  0  0
   -2.9703    5.1091   -2.4557 H   0  0  0  0  0  0  0  0  0  0  0  0
   -4.6243    4.9953   -4.3358 H   0  0  0  0  0  0  0  0  0  0  0  0
   -5.8385    5.7952   -3.3149 H   0  0  0  0  0  0  0  0  0  0  0  0
   -4.7224    7.2410   -4.6717 H   0  0  0  0  0  0  0  0  0  0  0  0
    3.1992   -2.6102   -3.5047 H   0  0  0  0  0  0  0  0  0  0  0  0
    5.4242   -3.0466   -2.4790 H   0  0  0  0  0  0  0  0  0  0  0  0
    6.0415   -1.9926   -0.3563 H   0  0  0  0  0  0  0  0  0  0  0  0
    3.9223    1.5671    0.8010 H   0  0  0  0  0  0  0  0  0  0  0  0
    2.9682    0.6225    1.9780 H   0  0  0  0  0  0  0  0  0  0  0  0
    4.2831    2.3403    3.1299 H   0  0  0  0  0  0  0  0  0  0  0  0
    5.7764    1.7749    2.3805 H   0  0  0  0  0  0  0  0  0  0  0  0
    5.5662   -1.6031    4.1999 H   0  0  0  0  0  0  0  0  0  0  0  0
    6.5989   -0.7256    3.0723 H   0  0  0  0  0  0  0  0  0  0  0  0
    3.7330   -1.7060    2.5549 H   0  0  0  0  0  0  0  0  0  0  0  0
    5.2308   -2.3369    1.8596 H   0  0  0  0  0  0  0  0  0  0  0  0
  1  2  2  0
  2  3  1  0
  3  4  2  0
  4  5  1  0
  5  6  2  0
  6  7  1  0
  7  8  1  0
  8  9  1  0
  9 10  1  0
 10 11  1  0
 11 12  1  0
 10 13  1  0
 13 14  1  0
  4 15  1  0
 15 16  1  0
 16 17  1  0
 17 18  1  0
 18 19  1  0
 16 20  2  0
 16 21  2  0
  1 22  1  0
 22 23  2  0
 23 24  1  0
 24 25  2  0
 25 26  1  0
 25 27  1  0
 27 28  2  0
 28 29  1  0
 29 30  2  0
 30 31  1  0
 31 32  1  0
 32 33  1  0
 33 34  1  0
 34 35  1  0
 35 36  1  0
 34 37  1  0
 34 38  1  0
  6  1  1  0
 12  7  1  0
 26 22  1  0
 36 31  1  0
 14 10  1  0
 30 24  1  0
  2 39  1  0
  3 40  1  0
  5 41  1  0
  8 42  1  0
  8 43  1  0
  9 44  1  0
  9 45  1  0
 11 46  1  0
 11 47  1  0
 12 48  1  0
 12 49  1  0
 13 50  1  0
 13 51  1  0
 14 52  1  0
 14 53  1  0
 15 54  1  0
 17 55  1  0
 17 56  1  0
 18 57  1  0
 18 58  1  0
 19 59  1  0
 27 60  1  0
 28 61  1  0
 29 62  1  0
 32 63  1  0
 32 64  1  0
 33 65  1  0
 33 66  1  0
 35 67  1  0
 35 68  1  0
 36 69  1  0
 36 70  1  0
M  END
$$$$
