BB_40
     RDKit          3D

 72 76  0  0  0  0  0  0  0  0999 V2000
   -1.5253   -2.1388   -0.6900 C   0  0  0  0  0  0  0  0  0  0  0  0
   -2.3223   -3.2732   -0.6574 C   0  0  0  0  0  0  0  0  0  0  0  0
   -3.7004   -3.1369   -0.8462 C   0  0  0  0  0  0  0  0  0  0  0  0
   -4.2661   -1.8752   -1.0476 C   0  0  0  0  0  0  0  0  0  0  0  0
   -3.4533   -0.7366   -1.0840 C   0  0  0  0  0  0  0  0  0  0  0  0
   -2.0794   -0.8700   -0.9015 C   0  0  0  0  0  0  0  0  0  0  0  0
   -1.0168    0.2137   -0.8436 C   0  0  0  0  0  0  0  0  0  0  0  0
    0.2694   -0.6676   -0.8249 C   0  0  0  0  0  0  0  0  0  0  0  0
   -0.1305   -2.0526   -0.5388 N   0  0  0  0  0  0  0  0  0  0  0  0
    0.7278   -3.1313   -0.3778 C   0  0  0  0  0  0  0  0  0  0  0  0
    2.1709   -2.8323   -0.2580 C   0  0  0  0  0  0  0  0  0  0  0  0
    2.6619   -2.1665    0.8678 C   0  0  0  0  0  0  0  0  0  0  0  0
    4.0293   -1.8947    0.9466 C   0  0  0  0  0  0  0  0  0  0  0  0
    4.9060   -2.3268   -0.0568 C   0  0  0  0  0  0  0  0  0  0  0  0
    4.4067   -3.0180   -1.1620 C   0  0  0  0  0  0  0  0  0  0  0  0
    3.0382   -3.2730   -1.2639 C   0  0  0  0  0  0  0  0  0  0  0  0
    4.6823   -1.0372    2.3537 S   0  0  0  0  0  6  0  0  0  0  0  0
    5.1434    0.4425    1.7353 N   0  0  0  0  0  0  0  0  0  0  0  0
    4.2872    1.5196    1.2067 C   0  0  0  0  0  0  0  0  0  0  0  0
    2.9364    1.6301    1.9144 C   0  0  0  0  0  0  0  0  0  0  0  0
    4.0866    1.3179   -0.2989 C   0  0  0  0  0  0  0  0  0  0  0  0
    5.0563    2.8356    1.4277 C   0  0  0  0  0  0  0  0  0  0  0  0
    5.9113   -1.7052    2.7221 O   0  0  0  0  0  0  0  0  0  0  0  0
    3.6171   -0.8421    3.3097 O   0  0  0  0  0  0  0  0  0  0  0  0
    0.4144   -4.3167   -0.3380 O   0  0  0  0  0  0  0  0  0  0  0  0
   -1.0956    1.0228    0.4743 C   0  0  0  0  0  0  0  0  0  0  0  0
   -2.1550    2.1236    0.4568 C   0  0  0  0  0  0  0  0  0  0  0  0
   -1.9648    3.0163   -0.7454 C   0  0  0  0  0  0  0  0  0  0  0  0
   -1.9878    2.2824   -2.0638 C   0  0  0  0  0  0  0  0  0  0  0  0
   -0.9682    1.1434   -2.0768 C   0  0  0  0  0  0  0  0  0  0  0  0
   -2.5583    4.4058   -0.6979 C   0  0  0  0  0  0  0  0  0  0  0  0
   -1.0683    4.2281   -0.6090 C   0  0  0  0  0  0  0  0  0  0  0  0
   -5.6682   -1.7058   -1.2284 N   0  0  0  0  0  0  0  0  0  0  0  0
   -6.7513   -2.2570   -0.0650 S   0  0  0  0  0  6  0  0  0  0  0  0
   -6.2107   -1.4043    1.4048 C   0  0  0  0  0  0  0  0  0  0  0  0
   -6.5827   -3.6784    0.1347 O   0  0  0  0  0  0  0  0  0  0  0  0
   -8.0344   -1.7004   -0.4408 O   0  0  0  0  0  0  0  0  0  0  0  0
   -1.9076   -4.2636   -0.5003 H   0  0  0  0  0  0  0  0  0  0  0  0
   -4.3179   -4.0322   -0.8467 H   0  0  0  0  0  0  0  0  0  0  0  0
   -3.9022    0.2370   -1.2337 H   0  0  0  0  0  0  0  0  0  0  0  0
    0.7743   -0.6811   -1.7999 H   0  0  0  0  0  0  0  0  0  0  0  0
    0.9959   -0.3186   -0.0872 H   0  0  0  0  0  0  0  0  0  0  0  0
    1.9857   -1.8726    1.6675 H   0  0  0  0  0  0  0  0  0  0  0  0
    5.9751   -2.1416    0.0263 H   0  0  0  0  0  0  0  0  0  0  0  0
    5.0841   -3.3707   -1.9367 H   0  0  0  0  0  0  0  0  0  0  0  0
    2.6480   -3.8270   -2.1154 H   0  0  0  0  0  0  0  0  0  0  0  0
    6.1556    0.5556    1.6828 H   0  0  0  0  0  0  0  0  0  0  0  0
    3.0598    1.7508    2.9963 H   0  0  0  0  0  0  0  0  0  0  0  0
    2.3090    0.7514    1.7401 H   0  0  0  0  0  0  0  0  0  0  0  0
    2.3726    2.4971    1.5500 H   0  0  0  0  0  0  0  0  0  0  0  0
    5.0445    1.1839   -0.8144 H   0  0  0  0  0  0  0  0  0  0  0  0
    3.4726    0.4393   -0.5137 H   0  0  0  0  0  0  0  0  0  0  0  0
    3.5813    2.1803   -0.7489 H   0  0  0  0  0  0  0  0  0  0  0  0
    6.0277    2.8199    0.9193 H   0  0  0  0  0  0  0  0  0  0  0  0
    4.4948    3.6962    1.0469 H   0  0  0  0  0  0  0  0  0  0  0  0
    5.2499    3.0047    2.4936 H   0  0  0  0  0  0  0  0  0  0  0  0
   -1.2739    0.3617    1.3320 H   0  0  0  0  0  0  0  0  0  0  0  0
   -0.1250    1.5065    0.6506 H   0  0  0  0  0  0  0  0  0  0  0  0
   -3.1622    1.6949    0.4420 H   0  0  0  0  0  0  0  0  0  0  0  0
   -2.0818    2.7002    1.3874 H   0  0  0  0  0  0  0  0  0  0  0  0
   -1.7631    2.9645   -2.8936 H   0  0  0  0  0  0  0  0  0  0  0  0
   -2.9964    1.9049   -2.2544 H   0  0  0  0  0  0  0  0  0  0  0  0
    0.0294    1.6030   -2.1218 H   0  0  0  0  0  0  0  0  0  0  0  0
   -1.0857    0.5663   -3.0028 H   0  0  0  0  0  0  0  0  0  0  0  0
   -2.9634    4.8329   -1.6092 H   0  0  0  0  0  0  0  0  0  0  0  0
   -3.0846    4.7195    0.1973 H   0  0  0  0  0  0  0  0  0  0  0  0
   -0.4722    4.5384   -1.4604 H   0  0  0  0  0  0  0  0  0  0  0  0
   -0.5938    4.4244    0.3465 H   0  0  0  0  0  0  0  0  0  0  0  0
   -5.9879   -0.8462   -1.6729 H   0  0  0  0  0  0  0  0  0  0  0  0
   -6.9288   -1.6223    2.1987 H   0  0  0  0  0  0  0  0  0  0  0  0
   -6.1957   -0.3308    1.2069 H   0  0  0  0  0  0  0  0  0  0  0  0
   -5.2239   -1.7679    1.6948 H   0  0  0  0  0  0  0  0  0  0  0  0
  1  2  2  0
  2  3  1  0
  3  4  2  0
  4  5  1  0
  5  6  2  0
  6  7  1  0
  7  8  1  0
  8  9  1  0
  9 10  1  0
 10 11  1  0
 11 12  2  0
 12 13  1  0
 13 14  2  0
 14 15  1  0
 15 16  2  0
 13 17  1  0
 17 18  1  0
 18 19  1  0
 19 20  1  0
 19 21  1  0
 19 22  1  0
 17 23  2  0
 17 24  2  0
 10 25  2  0
  7 26  1  0
 26 27  1  0
 27 28  1  0
 28 29  1  0
 29 30  1  0
 28 31  1  0
 31 32  1  0
  4 33  1  0
 33 34  1  0
 34 35  1  0
 34 36  2  0
 34 37  2  0
  6  1  1  0
 30  7  1  0
  9  1  1  0
 16 11  1  0
 32 28  1  0
  2 38  1  0
  3 39  1  0
  5 40  1  0
  8 41  1  0
  8 42  1  0
 12 43  1  0
 14 44  1  0
 15 45  1  0
 16 46  1  0
 18 47  1  0
 20 48  1  0
 20 49  1  0
 20 50  1  0
 21 51  1  0
 21 52  1  0
 21 53  1  0
 22 54  1  0
 22 55  1  0
 22 56  1  0
 26 57  1  0
 26 58  1  0
 27 59  1  0
 27 60  1  0
 29 61  1  0
 29 62  1  0
 30 63  1  0
 30 64  1  0
 31 65  1  0
 31 66  1  0
 32 67  1  0
 32 68  1  0
 33 69  1  0
 35 70  1  0
 35 71  1  0
 35 72  1  0
M  END
$$$$
