BB_43
     RDKit          3D

 67 71  0  0  0  0  0  0  0  0999 V2000
   -0.3530   -0.8336    0.5092 C   0  0  0  0  0  0  0  0  0  0  0  0
   -0.6667   -2.1901    0.2768 C   0  0  0  0  0  0  0  0  0  0  0  0
   -1.8977   -2.5718   -0.2551 C   0  0  0  0  0  0  0  0  0  0  0  0
   -2.8302   -1.5982   -0.5818 C   0  0  0  0  0  0  0  0  0  0  0  0
   -2.5569   -0.2501   -0.3462 C   0  0  0  0  0  0  0  0  0  0  0  0
   -1.3259    0.1588    0.2017 C   0  0  0  0  0  0  0  0  0  0  0  0
   -1.0472    1.5260    0.4087 N   0  0  0  0  0  0  0  0  0  0  0  0
   -2.1098    2.3640    0.9998 C   0  0  0  0  0  0  0  0  0  0  0  0
   -2.6387    3.4074    0.0103 C   0  0  0  0  0  0  0  0  0  0  0  0
   -1.5192    4.2999   -0.4992 C   0  0  0  0  0  0  0  0  0  0  0  0
   -0.1521    3.6366   -0.5272 C   0  0  0  0  0  0  0  0  0  0  0  0
   -0.2805    2.1201   -0.7061 C   0  0  0  0  0  0  0  0  0  0  0  0
   -1.8623    5.3067   -1.5794 C   0  0  0  0  0  0  0  0  0  0  0  0
   -1.5713    5.7825   -0.1880 C   0  0  0  0  0  0  0  0  0  0  0  0
   -4.1054   -1.9947   -1.0993 N   0  0  0  0  0  0  0  0  0  0  0  0
   -5.3401   -2.1303    0.0626 S   0  0  0  0  0  6  0  0  0  0  0  0
   -6.1900   -3.5861   -0.5039 C   0  0  0  0  0  0  0  0  0  0  0  0
   -5.3248   -4.8218   -0.4035 C   0  0  0  0  0  0  0  0  0  0  0  0
   -6.0574   -5.9629   -0.8463 O   0  0  0  0  0  0  0  0  0  0  0  0
   -4.7846   -2.4125    1.3671 O   0  0  0  0  0  0  0  0  0  0  0  0
   -6.2050   -0.9910   -0.1624 O   0  0  0  0  0  0  0  0  0  0  0  0
    0.9613   -0.5072    1.1020 C   0  0  0  0  0  0  0  0  0  0  0  0
    2.1552   -0.8976    0.4781 C   0  0  0  0  0  0  0  0  0  0  0  0
    3.3925   -0.5875    1.0487 C   0  0  0  0  0  0  0  0  0  0  0  0
    3.4703    0.0725    2.2224 N   0  0  0  0  0  0  0  0  0  0  0  0
    2.3179    0.4455    2.8199 C   0  0  0  0  0  0  0  0  0  0  0  0
    1.0616    0.1843    2.3081 C   0  0  0  0  0  0  0  0  0  0  0  0
    4.5763   -0.9994    0.3862 N   0  0  0  0  0  0  0  0  0  0  0  0
    5.7500   -0.9419    1.2753 C   0  0  0  0  0  0  0  0  0  0  0  0
    6.9369   -1.5777    0.5697 C   0  0  0  0  0  0  0  0  0  0  0  0
    7.1599   -0.8943   -0.7607 C   0  0  0  0  0  0  0  0  0  0  0  0
    5.9272   -0.8682   -1.6374 C   0  0  0  0  0  0  0  0  0  0  0  0
    4.7634   -0.2586   -0.8723 C   0  0  0  0  0  0  0  0  0  0  0  0
    7.5880    0.3791   -0.5507 F   0  0  0  0  0  0  0  0  0  0  0  0
    8.1661   -1.5219   -1.4248 F   0  0  0  0  0  0  0  0  0  0  0  0
    0.0522   -2.9656    0.5368 H   0  0  0  0  0  0  0  0  0  0  0  0
   -2.1151   -3.6240   -0.4091 H   0  0  0  0  0  0  0  0  0  0  0  0
   -3.3080    0.4916   -0.5983 H   0  0  0  0  0  0  0  0  0  0  0  0
   -2.9369    1.7664    1.4015 H   0  0  0  0  0  0  0  0  0  0  0  0
   -1.6710    2.8831    1.8616 H   0  0  0  0  0  0  0  0  0  0  0  0
   -3.4193    4.0033    0.4974 H   0  0  0  0  0  0  0  0  0  0  0  0
   -3.1057    2.9045   -0.8452 H   0  0  0  0  0  0  0  0  0  0  0  0
    0.4632    4.0465   -1.3364 H   0  0  0  0  0  0  0  0  0  0  0  0
    0.3675    3.8509    0.4154 H   0  0  0  0  0  0  0  0  0  0  0  0
    0.7244    1.6860   -0.7507 H   0  0  0  0  0  0  0  0  0  0  0  0
   -0.7771    1.9111   -1.6633 H   0  0  0  0  0  0  0  0  0  0  0  0
   -2.8878    5.3658   -1.9287 H   0  0  0  0  0  0  0  0  0  0  0  0
   -1.1306    5.5215   -2.3505 H   0  0  0  0  0  0  0  0  0  0  0  0
   -2.3976    6.1680    0.3991 H   0  0  0  0  0  0  0  0  0  0  0  0
   -0.6387    6.3105   -0.0185 H   0  0  0  0  0  0  0  0  0  0  0  0
   -4.4375   -1.3466   -1.8189 H   0  0  0  0  0  0  0  0  0  0  0  0
   -6.5267   -3.4122   -1.5310 H   0  0  0  0  0  0  0  0  0  0  0  0
   -7.0893   -3.6962    0.1117 H   0  0  0  0  0  0  0  0  0  0  0  0
   -4.9827   -5.0053    0.6201 H   0  0  0  0  0  0  0  0  0  0  0  0
   -4.4390   -4.7359   -1.0395 H   0  0  0  0  0  0  0  0  0  0  0  0
   -6.6684   -6.2197   -0.1329 H   0  0  0  0  0  0  0  0  0  0  0  0
    2.1219   -1.4554   -0.4524 H   0  0  0  0  0  0  0  0  0  0  0  0
    2.4361    0.9801    3.7577 H   0  0  0  0  0  0  0  0  0  0  0  0
    0.1751    0.5149    2.8391 H   0  0  0  0  0  0  0  0  0  0  0  0
    5.9914    0.0944    1.5481 H   0  0  0  0  0  0  0  0  0  0  0  0
    5.5630   -1.5047    2.1990 H   0  0  0  0  0  0  0  0  0  0  0  0
    7.8329   -1.4880    1.1936 H   0  0  0  0  0  0  0  0  0  0  0  0
    6.7607   -2.6485    0.4109 H   0  0  0  0  0  0  0  0  0  0  0  0
    6.1234   -0.2839   -2.5431 H   0  0  0  0  0  0  0  0  0  0  0  0
    5.6814   -1.8874   -1.9593 H   0  0  0  0  0  0  0  0  0  0  0  0
    4.9552    0.8037   -0.6691 H   0  0  0  0  0  0  0  0  0  0  0  0
    3.8752   -0.3150   -1.5128 H   0  0  0  0  0  0  0  0  0  0  0  0
  1  2  2  0
  2  3  1  0
  3  4  2  0
  4  5  1  0
  5  6  2  0
  6  7  1  0
  7  8  1  0
  8  9  1  0
  9 10  1  0
 10 11  1  0
 11 12  1  0
 10 13  1  0
 13 14  1  0
  4 15  1  0
 15 16  1  0
 16 17  1  0
 17 18  1  0
 18 19  1  0
 16 20  2  0
 16 21  2  0
  1 22  1  0
 22 23  2  0
 23 24  1  0
 24 25  2  0
 25 26  1  0
 26 27  2  0
 24 28  1  0
 28 29  1  0
 29 30  1  0
 30 31  1  0
 31 32  1  0
 32 33  1  0
 31 34  1  0
 31 35  1  0
  6  1  1  0
 12  7  1  0
 27 22  1  0
 33 28  1  0
 14 10  1  0
  2 36  1  0
  3 37  1  0
  5 38  1  0
  8 39  1  0
  8 40  1  0
  9 41  1  0
  9 42  1  0
 11 43  1  0
 11 44  1  0
 12 45  1  0
 12 46  1  0
 13 47  1  0
 13 48  1  0
 14 49  1  0
 14 50  1  0
 15 51  1  0
 17 52  1  0
 17 53  1  0
 18 54  1  0
 18 55  1  0
 19 56  1  0
 23 57  1  0
 26 58  1  0
 27 59  1  0
 29 60  1  0
 29 61  1  0
 30 62  1  0
 30 63  1  0
 32 64  1  0
 32 65  1  0
 33 66  1  0
 33 67  1  0
M  END
$$$$
