
     RDKit          3D

 48 50  0  0  0  0  0  0  0  0999 V2000
  132.0890  117.8760  131.4000 O   0  0  0  0  0  0  0  0  0  0  0  0
  130.9880  118.1860  131.8330 C   0  0  0  0  0  0  0  0  0  0  0  0
  129.8280  117.5350  131.4870 N   0  0  0  0  0  0  0  0  0  0  0  0
  129.8680  116.3560  130.6550 C   0  0  0  0  0  0  0  0  0  0  0  0
  129.1080  115.2290  131.2970 C   0  0  0  0  0  0  0  0  0  0  0  0
  127.8600  114.8350  130.7930 C   0  0  0  0  0  0  0  0  0  0  0  0
  127.1400  113.8100  131.4090 C   0  0  0  0  0  0  0  0  0  0  0  0
  127.6540  113.1760  132.5380 C   0  0  0  0  0  0  0  0  0  0  0  0
  128.8880  113.5660  133.0550 C   0  0  0  0  0  0  0  0  0  0  0  0
  129.6110  114.5910  132.4410 C   0  0  0  0  0  0  0  0  0  0  0  0
  130.8670  119.3160  132.7880 C   0  0  0  0  0  0  0  0  0  0  0  0
  131.5350  120.5330  132.5570 C   0  0  0  0  0  0  0  0  0  0  0  0
  132.3190  120.7980  131.2920 C   0  0  0  0  0  0  0  0  0  0  0  0
  131.5800  120.5210  130.1740 F   0  0  0  0  0  0  0  0  0  0  0  0
  133.4290  120.0230  131.1660 F   0  0  0  0  0  0  0  0  0  0  0  0
  132.6960  122.0940  131.1480 F   0  0  0  0  0  0  0  0  0  0  0  0
  131.4540  121.5420  133.5390 C   0  0  0  0  0  0  0  0  0  0  0  0
  130.7220  121.3560  134.7130 C   0  0  0  0  0  0  0  0  0  0  0  0
  130.0480  120.1530  134.9390 C   0  0  0  0  0  0  0  0  0  0  0  0
  129.2820  119.9150  136.2150 C   0  0  0  0  0  0  0  0  0  0  0  0
  130.1520  118.7810  137.2860 S   0  0  0  0  0  6  0  0  0  0  0  0
  130.4080  119.4690  138.5390 O   0  0  0  0  0  0  0  0  0  0  0  0
  131.2570  118.1950  136.5450 O   0  0  0  0  0  0  0  0  0  0  0  0
  128.9880  117.4850  137.6400 C   0  0  0  0  0  0  0  0  0  0  0  0
  128.1430  117.6060  138.7470 C   0  0  0  0  0  0  0  0  0  0  0  0
  127.2140  116.6010  139.0100 C   0  0  0  0  0  0  0  0  0  0  0  0
  127.1390  115.4820  138.1800 C   0  0  0  0  0  0  0  0  0  0  0  0
  128.0020  115.3550  137.0890 C   0  0  0  0  0  0  0  0  0  0  0  0
  128.9380  116.3530  136.8200 C   0  0  0  0  0  0  0  0  0  0  0  0
  130.1240  119.1510  133.9650 C   0  0  0  0  0  0  0  0  0  0  0  0
  129.4720  117.9990  134.1960 F   0  0  0  0  0  0  0  0  0  0  0  0
  128.9740  117.7150  131.9990 H   0  0  0  0  0  0  0  0  0  0  0  0
  129.4162  116.5869  129.6790 H   0  0  0  0  0  0  0  0  0  0  0  0
  130.9162  116.0485  130.5260 H   0  0  0  0  0  0  0  0  0  0  0  0
  127.4457  115.3371  129.9063 H   0  0  0  0  0  0  0  0  0  0  0  0
  126.1653  113.5024  131.0024 H   0  0  0  0  0  0  0  0  0  0  0  0
  127.0858  112.3676  133.0214 H   0  0  0  0  0  0  0  0  0  0  0  0
  129.2928  113.0661  133.9473 H   0  0  0  0  0  0  0  0  0  0  0  0
  130.5812  114.9002  132.8570 H   0  0  0  0  0  0  0  0  0  0  0  0
  131.9784  122.4952  133.3765 H   0  0  0  0  0  0  0  0  0  0  0  0
  130.6756  122.1594  135.4629 H   0  0  0  0  0  0  0  0  0  0  0  0
  129.1495  120.8734  136.7384 H   0  0  0  0  0  0  0  0  0  0  0  0
  128.3065  119.4754  135.9598 H   0  0  0  0  0  0  0  0  0  0  0  0
  128.2107  118.4857  139.4039 H   0  0  0  0  0  0  0  0  0  0  0  0
  126.5386  116.6901  139.8736 H   0  0  0  0  0  0  0  0  0  0  0  0
  126.3970  114.6964  138.3857 H   0  0  0  0  0  0  0  0  0  0  0  0
  127.9432  114.4675  136.4419 H   0  0  0  0  0  0  0  0  0  0  0  0
  129.6303  116.2510  135.9713 H   0  0  0  0  0  0  0  0  0  0  0  0
  1  2  2  0
  2  3  1  0
  3  4  1  0
  4  5  1  0
  5  6  2  0
  6  7  1  0
  7  8  2  0
  8  9  1  0
  9 10  2  0
  2 11  1  0
 11 12  2  0
 12 13  1  0
 13 14  1  0
 13 15  1  0
 13 16  1  0
 12 17  1  0
 17 18  2  0
 18 19  1  0
 19 20  1  0
 20 21  1  0
 21 22  2  0
 21 23  2  0
 21 24  1  0
 24 25  2  0
 25 26  1  0
 26 27  2  0
 27 28  1  0
 28 29  2  0
 19 30  2  0
 30 31  1  0
 10  5  1  0
 30 11  1  0
 29 24  1  0
  3 32  1  0
  4 33  1  0
  4 34  1  0
  6 35  1  0
  7 36  1  0
  8 37  1  0
  9 38  1  0
 10 39  1  0
 17 40  1  0
 18 41  1  0
 20 42  1  0
 20 43  1  0
 25 44  1  0
 26 45  1  0
 27 46  1  0
 28 47  1  0
 29 48  1  0
M  END
$$$$

     RDKit          3D

 48 50  0  0  0  0  0  0  0  0999 V2000
  131.6070  117.1120  131.5760 O   0  0  0  0  0  0  0  0  0  0  0  0
  130.5660  117.6770  131.8860 C   0  0  0  0  0  0  0  0  0  0  0  0
  129.3250  117.2530  131.4770 N   0  0  0  0  0  0  0  0  0  0  0  0
  129.1770  116.0280  130.7270 C   0  0  0  0  0  0  0  0  0  0  0  0
  128.2270  115.0930  131.4230 C   0  0  0  0  0  0  0  0  0  0  0  0
  127.9550  113.8260  130.8870 C   0  0  0  0  0  0  0  0  0  0  0  0
  127.0500  112.9710  131.5150 C   0  0  0  0  0  0  0  0  0  0  0  0
  126.4000  113.3750  132.6800 C   0  0  0  0  0  0  0  0  0  0  0  0
  126.6530  114.6370  133.2160 C   0  0  0  0  0  0  0  0  0  0  0  0
  127.5590  115.4940  132.5890 C   0  0  0  0  0  0  0  0  0  0  0  0
  130.6160  118.8800  132.7530 C   0  0  0  0  0  0  0  0  0  0  0  0
  131.3770  120.0050  132.3860 C   0  0  0  0  0  0  0  0  0  0  0  0
  132.0950  120.0990  131.0590 C   0  0  0  0  0  0  0  0  0  0  0  0
  132.4740  121.3840  130.7800 F   0  0  0  0  0  0  0  0  0  0  0  0
  131.3280  119.7330  129.9970 F   0  0  0  0  0  0  0  0  0  0  0  0
  133.2450  119.3780  131.0120 F   0  0  0  0  0  0  0  0  0  0  0  0
  131.4560  121.0870  133.2870 C   0  0  0  0  0  0  0  0  0  0  0  0
  130.7910  121.0610  134.5140 C   0  0  0  0  0  0  0  0  0  0  0  0
  130.0250  119.9500  134.8760 C   0  0  0  0  0  0  0  0  0  0  0  0
  129.3280  119.8830  136.2100 C   0  0  0  0  0  0  0  0  0  0  0  0
  130.1670  118.7620  137.3190 S   0  0  0  0  0  6  0  0  0  0  0  0
  130.4410  119.4830  138.5500 O   0  0  0  0  0  0  0  0  0  0  0  0
  131.2560  118.1230  136.5990 O   0  0  0  0  0  0  0  0  0  0  0  0
  128.9690  117.5090  137.7130 C   0  0  0  0  0  0  0  0  0  0  0  0
  128.1130  117.6980  138.8020 C   0  0  0  0  0  0  0  0  0  0  0  0
  127.1570  116.7270  139.0960 C   0  0  0  0  0  0  0  0  0  0  0  0
  127.0670  115.5750  138.3150 C   0  0  0  0  0  0  0  0  0  0  0  0
  127.9400  115.3800  137.2430 C   0  0  0  0  0  0  0  0  0  0  0  0
  128.9030  116.3440  136.9430 C   0  0  0  0  0  0  0  0  0  0  0  0
  129.9420  118.8760  133.9820 C   0  0  0  0  0  0  0  0  0  0  0  0
  129.2030  117.8140  134.3430 F   0  0  0  0  0  0  0  0  0  0  0  0
  128.4920  117.6470  131.8960 H   0  0  0  0  0  0  0  0  0  0  0  0
  128.7856  116.2620  129.7260 H   0  0  0  0  0  0  0  0  0  0  0  0
  130.1597  115.5403  130.6468 H   0  0  0  0  0  0  0  0  0  0  0  0
  128.4595  113.5041  129.9640 H   0  0  0  0  0  0  0  0  0  0  0  0
  126.8488  111.9764  131.0905 H   0  0  0  0  0  0  0  0  0  0  0  0
  125.6881  112.6988  133.1760 H   0  0  0  0  0  0  0  0  0  0  0  0
  126.1382  114.9576  134.1337 H   0  0  0  0  0  0  0  0  0  0  0  0
  127.7503  116.4910  133.0125 H   0  0  0  0  0  0  0  0  0  0  0  0
  132.0541  121.9699  133.0172 H   0  0  0  0  0  0  0  0  0  0  0  0
  130.8703  121.9184  135.1985 H   0  0  0  0  0  0  0  0  0  0  0  0
  129.3130  120.8874  136.6582 H   0  0  0  0  0  0  0  0  0  0  0  0
  128.3037  119.5151  136.0507 H   0  0  0  0  0  0  0  0  0  0  0  0
  128.1931  118.6039  139.4208 H   0  0  0  0  0  0  0  0  0  0  0  0
  126.4726  116.8696  139.9452 H   0  0  0  0  0  0  0  0  0  0  0  0
  126.3044  114.8163  138.5448 H   0  0  0  0  0  0  0  0  0  0  0  0
  127.8686  114.4662  136.6348 H   0  0  0  0  0  0  0  0  0  0  0  0
  129.6033  116.1889  136.1090 H   0  0  0  0  0  0  0  0  0  0  0  0
  1  2  2  0
  2  3  1  0
  3  4  1  0
  4  5  1  0
  5  6  2  0
  6  7  1  0
  7  8  2  0
  8  9  1  0
  9 10  2  0
  2 11  1  0
 11 12  2  0
 12 13  1  0
 13 14  1  0
 13 15  1  0
 13 16  1  0
 12 17  1  0
 17 18  2  0
 18 19  1  0
 19 20  1  0
 20 21  1  0
 21 22  2  0
 21 23  2  0
 21 24  1  0
 24 25  2  0
 25 26  1  0
 26 27  2  0
 27 28  1  0
 28 29  2  0
 19 30  2  0
 30 31  1  0
 10  5  1  0
 30 11  1  0
 29 24  1  0
  3 32  1  0
  4 33  1  0
  4 34  1  0
  6 35  1  0
  7 36  1  0
  8 37  1  0
  9 38  1  0
 10 39  1  0
 17 40  1  0
 18 41  1  0
 20 42  1  0
 20 43  1  0
 25 44  1  0
 26 45  1  0
 27 46  1  0
 28 47  1  0
 29 48  1  0
M  END
$$$$

     RDKit          3D

 48 50  0  0  0  0  0  0  0  0999 V2000
  131.6510  117.1090  131.5350 O   0  0  0  0  0  0  0  0  0  0  0  0
  130.6270  117.7150  131.8210 C   0  0  0  0  0  0  0  0  0  0  0  0
  129.3750  117.3110  131.4250 N   0  0  0  0  0  0  0  0  0  0  0  0
  129.1930  116.0630  130.7220 C   0  0  0  0  0  0  0  0  0  0  0  0
  128.1930  115.1950  131.4360 C   0  0  0  0  0  0  0  0  0  0  0  0
  127.5110  115.6760  132.5620 C   0  0  0  0  0  0  0  0  0  0  0  0
  126.6070  114.8600  133.2430 C   0  0  0  0  0  0  0  0  0  0  0  0
  126.3830  113.5540  132.8120 C   0  0  0  0  0  0  0  0  0  0  0  0
  127.0640  113.0610  131.7010 C   0  0  0  0  0  0  0  0  0  0  0  0
  127.9690  113.8760  131.0170 C   0  0  0  0  0  0  0  0  0  0  0  0
  130.7090  118.9490  132.6420 C   0  0  0  0  0  0  0  0  0  0  0  0
  131.5000  120.0390  132.2320 C   0  0  0  0  0  0  0  0  0  0  0  0
  132.2200  120.0620  130.9020 C   0  0  0  0  0  0  0  0  0  0  0  0
  132.6400  121.3240  130.5780 F   0  0  0  0  0  0  0  0  0  0  0  0
  131.4410  119.6830  129.8540 F   0  0  0  0  0  0  0  0  0  0  0  0
  133.3460  119.3040  130.8810 F   0  0  0  0  0  0  0  0  0  0  0  0
  131.6090  121.1520  133.0910 C   0  0  0  0  0  0  0  0  0  0  0  0
  130.9440  121.1900  134.3180 C   0  0  0  0  0  0  0  0  0  0  0  0
  130.1490  120.1140  134.7220 C   0  0  0  0  0  0  0  0  0  0  0  0
  129.4520  120.1170  136.0570 C   0  0  0  0  0  0  0  0  0  0  0  0
  130.1070  118.8470  137.1280 S   0  0  0  0  0  6  0  0  0  0  0  0
  130.1570  119.3890  138.4750 O   0  0  0  0  0  0  0  0  0  0  0  0
  131.3130  118.3040  136.5240 O   0  0  0  0  0  0  0  0  0  0  0  0
  128.8790  117.5620  137.1370 C   0  0  0  0  0  0  0  0  0  0  0  0
  127.5300  117.9040  137.2740 C   0  0  0  0  0  0  0  0  0  0  0  0
  126.5650  116.8980  137.2560 C   0  0  0  0  0  0  0  0  0  0  0  0
  126.9480  115.5640  137.1130 C   0  0  0  0  0  0  0  0  0  0  0  0
  128.2970  115.2260  137.0010 C   0  0  0  0  0  0  0  0  0  0  0  0
  129.2710  116.2250  137.0220 C   0  0  0  0  0  0  0  0  0  0  0  0
  130.0370  119.0100  133.8700 C   0  0  0  0  0  0  0  0  0  0  0  0
  129.2700  117.9820  134.2700 F   0  0  0  0  0  0  0  0  0  0  0  0
  128.5530  117.7440  131.8270 H   0  0  0  0  0  0  0  0  0  0  0  0
  128.8303  116.2706  129.7045 H   0  0  0  0  0  0  0  0  0  0  0  0
  130.1569  115.5345  130.6815 H   0  0  0  0  0  0  0  0  0  0  0  0
  127.6896  116.7037  132.9112 H   0  0  0  0  0  0  0  0  0  0  0  0
  126.0704  115.2482  134.1213 H   0  0  0  0  0  0  0  0  0  0  0  0
  125.6687  112.9124  133.3488 H   0  0  0  0  0  0  0  0  0  0  0  0
  126.8889  112.0292  131.3623 H   0  0  0  0  0  0  0  0  0  0  0  0
  128.5092  113.4805  130.1442 H   0  0  0  0  0  0  0  0  0  0  0  0
  132.2305  122.0076  132.7882 H   0  0  0  0  0  0  0  0  0  0  0  0
  131.0462  122.0705  134.9694 H   0  0  0  0  0  0  0  0  0  0  0  0
  129.5943  121.0978  136.5342 H   0  0  0  0  0  0  0  0  0  0  0  0
  128.3827  119.9180  135.8929 H   0  0  0  0  0  0  0  0  0  0  0  0
  127.2332  118.9563  137.3948 H   0  0  0  0  0  0  0  0  0  0  0  0
  125.5003  117.1563  137.3546 H   0  0  0  0  0  0  0  0  0  0  0  0
  126.1823  114.7746  137.0884 H   0  0  0  0  0  0  0  0  0  0  0  0
  128.5928  114.1717  136.8961 H   0  0  0  0  0  0  0  0  0  0  0  0
  130.3368  115.9631  136.9488 H   0  0  0  0  0  0  0  0  0  0  0  0
  1  2  2  0
  2  3  1  0
  3  4  1  0
  4  5  1  0
  5  6  2  0
  6  7  1  0
  7  8  2  0
  8  9  1  0
  9 10  2  0
  2 11  1  0
 11 12  2  0
 12 13  1  0
 13 14  1  0
 13 15  1  0
 13 16  1  0
 12 17  1  0
 17 18  2  0
 18 19  1  0
 19 20  1  0
 20 21  1  0
 21 22  2  0
 21 23  2  0
 21 24  1  0
 24 25  2  0
 25 26  1  0
 26 27  2  0
 27 28  1  0
 28 29  2  0
 19 30  2  0
 30 31  1  0
 10  5  1  0
 30 11  1  0
 29 24  1  0
  3 32  1  0
  4 33  1  0
  4 34  1  0
  6 35  1  0
  7 36  1  0
  8 37  1  0
  9 38  1  0
 10 39  1  0
 17 40  1  0
 18 41  1  0
 20 42  1  0
 20 43  1  0
 25 44  1  0
 26 45  1  0
 27 46  1  0
 28 47  1  0
 29 48  1  0
M  END
$$$$

     RDKit          3D

 48 50  0  0  0  0  0  0  0  0999 V2000
  131.6330  117.1850  131.5510 O   0  0  0  0  0  0  0  0  0  0  0  0
  130.5920  117.7400  131.8770 C   0  0  0  0  0  0  0  0  0  0  0  0
  129.3490  117.3110  131.4790 N   0  0  0  0  0  0  0  0  0  0  0  0
  129.2010  116.0910  130.7210 C   0  0  0  0  0  0  0  0  0  0  0  0
  128.1980  115.1810  131.3740 C   0  0  0  0  0  0  0  0  0  0  0  0
  127.4290  115.6320  132.4560 C   0  0  0  0  0  0  0  0  0  0  0  0
  126.5210  114.7780  133.0830 C   0  0  0  0  0  0  0  0  0  0  0  0
  126.3790  113.4640  132.6410 C   0  0  0  0  0  0  0  0  0  0  0  0
  127.1460  113.0010  131.5740 C   0  0  0  0  0  0  0  0  0  0  0  0
  128.0550  113.8540  130.9450 C   0  0  0  0  0  0  0  0  0  0  0  0
  130.6430  118.9370  132.7530 C   0  0  0  0  0  0  0  0  0  0  0  0
  131.4110  120.0620  132.3980 C   0  0  0  0  0  0  0  0  0  0  0  0
  132.1350  120.1620  131.0740 C   0  0  0  0  0  0  0  0  0  0  0  0
  131.3410  119.7620  130.0330 F   0  0  0  0  0  0  0  0  0  0  0  0
  133.2320  119.3620  130.9910 F   0  0  0  0  0  0  0  0  0  0  0  0
  132.5150  121.4260  130.7570 F   0  0  0  0  0  0  0  0  0  0  0  0
  131.4910  121.1370  133.3060 C   0  0  0  0  0  0  0  0  0  0  0  0
  130.8200  121.1040  134.5310 C   0  0  0  0  0  0  0  0  0  0  0  0
  130.0480  119.9940  134.8810 C   0  0  0  0  0  0  0  0  0  0  0  0
  129.3450  119.9200  136.2120 C   0  0  0  0  0  0  0  0  0  0  0  0
  130.1710  118.7830  137.3140 S   0  0  0  0  0  6  0  0  0  0  0  0
  130.4560  119.4950  138.5470 O   0  0  0  0  0  0  0  0  0  0  0  0
  131.2500  118.1340  136.5890 O   0  0  0  0  0  0  0  0  0  0  0  0
  128.9570  117.5450  137.7050 C   0  0  0  0  0  0  0  0  0  0  0  0
  128.8610  116.4030  136.9050 C   0  0  0  0  0  0  0  0  0  0  0  0
  127.9250  115.4200  137.2260 C   0  0  0  0  0  0  0  0  0  0  0  0
  127.0880  115.5860  138.3300 C   0  0  0  0  0  0  0  0  0  0  0  0
  127.1720  116.7390  139.1120 C   0  0  0  0  0  0  0  0  0  0  0  0
  128.1020  117.7300  138.7960 C   0  0  0  0  0  0  0  0  0  0  0  0
  129.9640  118.9270  133.9790 C   0  0  0  0  0  0  0  0  0  0  0  0
  129.2190  117.8650  134.3290 F   0  0  0  0  0  0  0  0  0  0  0  0
  128.5190  117.6950  131.9100 H   0  0  0  0  0  0  0  0  0  0  0  0
  128.8590  116.3361  129.7046 H   0  0  0  0  0  0  0  0  0  0  0  0
  130.1730  115.5776  130.6818 H   0  0  0  0  0  0  0  0  0  0  0  0
  127.5422  116.6662  132.8131 H   0  0  0  0  0  0  0  0  0  0  0  0
  125.9167  115.1422  133.9269 H   0  0  0  0  0  0  0  0  0  0  0  0
  125.6613  112.7923  133.1346 H   0  0  0  0  0  0  0  0  0  0  0  0
  127.0354  111.9630  131.2270 H   0  0  0  0  0  0  0  0  0  0  0  0
  128.6631  113.4823  130.1071 H   0  0  0  0  0  0  0  0  0  0  0  0
  132.0936  122.0194  133.0450 H   0  0  0  0  0  0  0  0  0  0  0  0
  130.9001  121.9556  135.2226 H   0  0  0  0  0  0  0  0  0  0  0  0
  129.3356  120.9204  136.6693 H   0  0  0  0  0  0  0  0  0  0  0  0
  128.3187  119.5610  136.0452 H   0  0  0  0  0  0  0  0  0  0  0  0
  129.5172  116.2806  136.0307 H   0  0  0  0  0  0  0  0  0  0  0  0
  127.8466  114.5132  136.6083 H   0  0  0  0  0  0  0  0  0  0  0  0
  126.3579  114.8038  138.5854 H   0  0  0  0  0  0  0  0  0  0  0  0
  126.5050  116.8664  139.9774 H   0  0  0  0  0  0  0  0  0  0  0  0
  128.1621  118.6479  139.3992 H   0  0  0  0  0  0  0  0  0  0  0  0
  1  2  2  0
  2  3  1  0
  3  4  1  0
  4  5  1  0
  5  6  2  0
  6  7  1  0
  7  8  2  0
  8  9  1  0
  9 10  2  0
  2 11  1  0
 11 12  2  0
 12 13  1  0
 13 14  1  0
 13 15  1  0
 13 16  1  0
 12 17  1  0
 17 18  2  0
 18 19  1  0
 19 20  1  0
 20 21  1  0
 21 22  2  0
 21 23  2  0
 21 24  1  0
 24 25  2  0
 25 26  1  0
 26 27  2  0
 27 28  1  0
 28 29  2  0
 19 30  2  0
 30 31  1  0
 10  5  1  0
 30 11  1  0
 29 24  1  0
  3 32  1  0
  4 33  1  0
  4 34  1  0
  6 35  1  0
  7 36  1  0
  8 37  1  0
  9 38  1  0
 10 39  1  0
 17 40  1  0
 18 41  1  0
 20 42  1  0
 20 43  1  0
 25 44  1  0
 26 45  1  0
 27 46  1  0
 28 47  1  0
 29 48  1  0
M  END
$$$$

     RDKit          3D

 48 50  0  0  0  0  0  0  0  0999 V2000
  130.6470  118.9440  130.6500 O   0  0  0  0  0  0  0  0  0  0  0  0
  130.8390  118.5900  131.8050 C   0  0  0  0  0  0  0  0  0  0  0  0
  131.0340  117.2810  132.1730 N   0  0  0  0  0  0  0  0  0  0  0  0
  131.1280  116.2440  131.1740 C   0  0  0  0  0  0  0  0  0  0  0  0
  130.0840  115.1870  131.4080 C   0  0  0  0  0  0  0  0  0  0  0  0
  129.2740  114.7420  130.3540 C   0  0  0  0  0  0  0  0  0  0  0  0
  128.2840  113.7850  130.5770 C   0  0  0  0  0  0  0  0  0  0  0  0
  128.0870  113.2700  131.8570 C   0  0  0  0  0  0  0  0  0  0  0  0
  128.8770  113.7130  132.9150 C   0  0  0  0  0  0  0  0  0  0  0  0
  129.8690  114.6700  132.6940 C   0  0  0  0  0  0  0  0  0  0  0  0
  130.8740  119.6070  132.8870 C   0  0  0  0  0  0  0  0  0  0  0  0
  131.7080  120.7370  132.7900 C   0  0  0  0  0  0  0  0  0  0  0  0
  132.5260  121.0350  131.5540 C   0  0  0  0  0  0  0  0  0  0  0  0
  133.2520  119.9460  131.1550 F   0  0  0  0  0  0  0  0  0  0  0  0
  133.4520  122.0140  131.7370 F   0  0  0  0  0  0  0  0  0  0  0  0
  131.7750  121.3680  130.4730 F   0  0  0  0  0  0  0  0  0  0  0  0
  131.7660  121.6260  133.8830 C   0  0  0  0  0  0  0  0  0  0  0  0
  131.0110  121.4080  135.0380 C   0  0  0  0  0  0  0  0  0  0  0  0
  130.1740  120.2930  135.1310 C   0  0  0  0  0  0  0  0  0  0  0  0
  129.3780  120.0180  136.3800 C   0  0  0  0  0  0  0  0  0  0  0  0
  130.1640  118.7640  137.3810 S   0  0  0  0  0  6  0  0  0  0  0  0
  130.4060  119.3380  138.6940 O   0  0  0  0  0  0  0  0  0  0  0  0
  131.2670  118.1920  136.6280 O   0  0  0  0  0  0  0  0  0  0  0  0
  128.9360  117.4970  137.5940 C   0  0  0  0  0  0  0  0  0  0  0  0
  128.8830  116.4340  136.6870 C   0  0  0  0  0  0  0  0  0  0  0  0
  127.9350  115.4280  136.8680 C   0  0  0  0  0  0  0  0  0  0  0  0
  127.0440  115.4910  137.9390 C   0  0  0  0  0  0  0  0  0  0  0  0
  127.0850  116.5670  138.8280 C   0  0  0  0  0  0  0  0  0  0  0  0
  128.0270  117.5810  138.6530 C   0  0  0  0  0  0  0  0  0  0  0  0
  130.1120  119.4120  134.0470 C   0  0  0  0  0  0  0  0  0  0  0  0
  129.3040  118.3430  134.1500 F   0  0  0  0  0  0  0  0  0  0  0  0
  131.3570  117.0600  133.1070 H   0  0  0  0  0  0  0  0  0  0  0  0
  130.9774  116.6866  130.1783 H   0  0  0  0  0  0  0  0  0  0  0  0
  132.1231  115.7796  131.2376 H   0  0  0  0  0  0  0  0  0  0  0  0
  129.4202  115.1506  129.3433 H   0  0  0  0  0  0  0  0  0  0  0  0
  127.6583  113.4366  129.7420 H   0  0  0  0  0  0  0  0  0  0  0  0
  127.3076  112.5137  132.0316 H   0  0  0  0  0  0  0  0  0  0  0  0
  128.7191  113.3084  133.9256 H   0  0  0  0  0  0  0  0  0  0  0  0
  130.4863  115.0210  133.5341 H   0  0  0  0  0  0  0  0  0  0  0  0
  132.4191  122.5092  133.8250 H   0  0  0  0  0  0  0  0  0  0  0  0
  131.0756  122.1164  135.8770 H   0  0  0  0  0  0  0  0  0  0  0  0
  129.2962  120.9457  136.9653 H   0  0  0  0  0  0  0  0  0  0  0  0
  128.3814  119.6567  136.0865 H   0  0  0  0  0  0  0  0  0  0  0  0
  129.5824  116.3920  135.8390 H   0  0  0  0  0  0  0  0  0  0  0  0
  127.8897  114.5832  136.1649 H   0  0  0  0  0  0  0  0  0  0  0  0
  126.3052  114.6890  138.0842 H   0  0  0  0  0  0  0  0  0  0  0  0
  126.3745  116.6151  139.6664 H   0  0  0  0  0  0  0  0  0  0  0  0
  128.0543  118.4384  139.3416 H   0  0  0  0  0  0  0  0  0  0  0  0
  1  2  2  0
  2  3  1  0
  3  4  1  0
  4  5  1  0
  5  6  2  0
  6  7  1  0
  7  8  2  0
  8  9  1  0
  9 10  2  0
  2 11  1  0
 11 12  2  0
 12 13  1  0
 13 14  1  0
 13 15  1  0
 13 16  1  0
 12 17  1  0
 17 18  2  0
 18 19  1  0
 19 20  1  0
 20 21  1  0
 21 22  2  0
 21 23  2  0
 21 24  1  0
 24 25  2  0
 25 26  1  0
 26 27  2  0
 27 28  1  0
 28 29  2  0
 19 30  2  0
 30 31  1  0
 10  5  1  0
 30 11  1  0
 29 24  1  0
  3 32  1  0
  4 33  1  0
  4 34  1  0
  6 35  1  0
  7 36  1  0
  8 37  1  0
  9 38  1  0
 10 39  1  0
 17 40  1  0
 18 41  1  0
 20 42  1  0
 20 43  1  0
 25 44  1  0
 26 45  1  0
 27 46  1  0
 28 47  1  0
 29 48  1  0
M  END
$$$$

     RDKit          3D

 48 50  0  0  0  0  0  0  0  0999 V2000
  131.6680  117.1970  131.5000 O   0  0  0  0  0  0  0  0  0  0  0  0
  130.6280  117.7510  131.8320 C   0  0  0  0  0  0  0  0  0  0  0  0
  129.3830  117.3130  131.4520 N   0  0  0  0  0  0  0  0  0  0  0  0
  129.2310  116.0850  130.7090 C   0  0  0  0  0  0  0  0  0  0  0  0
  128.2750  115.1580  131.4070 C   0  0  0  0  0  0  0  0  0  0  0  0
  128.0630  113.8590  130.9230 C   0  0  0  0  0  0  0  0  0  0  0  0
  127.1520  113.0100  131.5520 C   0  0  0  0  0  0  0  0  0  0  0  0
  126.4380  113.4520  132.6640 C   0  0  0  0  0  0  0  0  0  0  0  0
  126.6310  114.7440  133.1470 C   0  0  0  0  0  0  0  0  0  0  0  0
  127.5420  115.5960  132.5200 C   0  0  0  0  0  0  0  0  0  0  0  0
  130.6840  118.9570  132.6960 C   0  0  0  0  0  0  0  0  0  0  0  0
  131.4460  120.0790  132.3220 C   0  0  0  0  0  0  0  0  0  0  0  0
  132.1600  120.1670  130.9920 C   0  0  0  0  0  0  0  0  0  0  0  0
  133.2830  119.3840  130.9700 F   0  0  0  0  0  0  0  0  0  0  0  0
  132.6090  121.4150  130.6950 F   0  0  0  0  0  0  0  0  0  0  0  0
  131.4120  119.7320  129.9450 F   0  0  0  0  0  0  0  0  0  0  0  0
  131.5320  121.1640  133.2190 C   0  0  0  0  0  0  0  0  0  0  0  0
  130.8710  121.1430  134.4500 C   0  0  0  0  0  0  0  0  0  0  0  0
  130.1040  120.0350  134.8170 C   0  0  0  0  0  0  0  0  0  0  0  0
  129.4120  119.9740  136.1540 C   0  0  0  0  0  0  0  0  0  0  0  0
  130.2590  118.8630  137.2670 S   0  0  0  0  0  6  0  0  0  0  0  0
  130.6040  119.6150  138.4610 O   0  0  0  0  0  0  0  0  0  0  0  0
  131.2980  118.1660  136.5280 O   0  0  0  0  0  0  0  0  0  0  0  0
  129.0390  117.6640  137.7500 C   0  0  0  0  0  0  0  0  0  0  0  0
  128.8800  116.5020  136.9890 C   0  0  0  0  0  0  0  0  0  0  0  0
  127.9410  115.5510  137.3820 C   0  0  0  0  0  0  0  0  0  0  0  0
  127.1610  115.7650  138.5180 C   0  0  0  0  0  0  0  0  0  0  0  0
  127.3070  116.9380  139.2620 C   0  0  0  0  0  0  0  0  0  0  0  0
  128.2410  117.8980  138.8750 C   0  0  0  0  0  0  0  0  0  0  0  0
  130.0150  118.9590  133.9270 C   0  0  0  0  0  0  0  0  0  0  0  0
  129.2750  117.8990  134.2940 F   0  0  0  0  0  0  0  0  0  0  0  0
  128.5560  117.6980  131.8890 H   0  0  0  0  0  0  0  0  0  0  0  0
  128.8434  116.3153  129.7057 H   0  0  0  0  0  0  0  0  0  0  0  0
  130.2116  115.5922  130.6347 H   0  0  0  0  0  0  0  0  0  0  0  0
  128.6188  113.5071  130.0414 H   0  0  0  0  0  0  0  0  0  0  0  0
  126.9971  111.9903  131.1696 H   0  0  0  0  0  0  0  0  0  0  0  0
  125.7219  112.7805  133.1603 H   0  0  0  0  0  0  0  0  0  0  0  0
  126.0652  115.0934  134.0232 H   0  0  0  0  0  0  0  0  0  0  0  0
  127.6860  116.6177  132.9013 H   0  0  0  0  0  0  0  0  0  0  0  0
  132.1314  122.0444  132.9440 H   0  0  0  0  0  0  0  0  0  0  0  0
  130.9550  122.0019  135.1321 H   0  0  0  0  0  0  0  0  0  0  0  0
  129.3950  120.9812  136.5959 H   0  0  0  0  0  0  0  0  0  0  0  0
  128.3884  119.6015  136.0007 H   0  0  0  0  0  0  0  0  0  0  0  0
  129.4906  116.3402  136.0884 H   0  0  0  0  0  0  0  0  0  0  0  0
  127.8145  114.6293  136.7950 H   0  0  0  0  0  0  0  0  0  0  0  0
  126.4276  115.0067  138.8295 H   0  0  0  0  0  0  0  0  0  0  0  0
  126.6848  117.1045  140.1537 H   0  0  0  0  0  0  0  0  0  0  0  0
  128.3494  118.8303  139.4486 H   0  0  0  0  0  0  0  0  0  0  0  0
  1  2  2  0
  2  3  1  0
  3  4  1  0
  4  5  1  0
  5  6  2  0
  6  7  1  0
  7  8  2  0
  8  9  1  0
  9 10  2  0
  2 11  1  0
 11 12  2  0
 12 13  1  0
 13 14  1  0
 13 15  1  0
 13 16  1  0
 12 17  1  0
 17 18  2  0
 18 19  1  0
 19 20  1  0
 20 21  1  0
 21 22  2  0
 21 23  2  0
 21 24  1  0
 24 25  2  0
 25 26  1  0
 26 27  2  0
 27 28  1  0
 28 29  2  0
 19 30  2  0
 30 31  1  0
 10  5  1  0
 30 11  1  0
 29 24  1  0
  3 32  1  0
  4 33  1  0
  4 34  1  0
  6 35  1  0
  7 36  1  0
  8 37  1  0
  9 38  1  0
 10 39  1  0
 17 40  1  0
 18 41  1  0
 20 42  1  0
 20 43  1  0
 25 44  1  0
 26 45  1  0
 27 46  1  0
 28 47  1  0
 29 48  1  0
M  END
$$$$

     RDKit          3D

 48 50  0  0  0  0  0  0  0  0999 V2000
  132.3590  117.6910  131.1630 O   0  0  0  0  0  0  0  0  0  0  0  0
  131.2970  118.0520  131.6510 C   0  0  0  0  0  0  0  0  0  0  0  0
  130.0940  117.4480  131.3780 N   0  0  0  0  0  0  0  0  0  0  0  0
  130.0380  116.2600  130.5590 C   0  0  0  0  0  0  0  0  0  0  0  0
  129.2800  115.1680  131.2630 C   0  0  0  0  0  0  0  0  0  0  0  0
  128.0180  114.7670  130.8000 C   0  0  0  0  0  0  0  0  0  0  0  0
  127.3000  113.7770  131.4710 C   0  0  0  0  0  0  0  0  0  0  0  0
  127.8300  113.1840  132.6150 C   0  0  0  0  0  0  0  0  0  0  0  0
  129.0780  113.5830  133.0920 C   0  0  0  0  0  0  0  0  0  0  0  0
  129.7980  114.5730  132.4220 C   0  0  0  0  0  0  0  0  0  0  0  0
  131.2770  119.1960  132.5970 C   0  0  0  0  0  0  0  0  0  0  0  0
  131.7430  120.4660  132.2070 C   0  0  0  0  0  0  0  0  0  0  0  0
  132.1870  120.7650  130.7930 C   0  0  0  0  0  0  0  0  0  0  0  0
  132.1620  122.1080  130.5300 F   0  0  0  0  0  0  0  0  0  0  0  0
  131.3840  120.2180  129.8420 F   0  0  0  0  0  0  0  0  0  0  0  0
  133.4630  120.3830  130.5320 F   0  0  0  0  0  0  0  0  0  0  0  0
  131.7800  121.4940  133.1700 C   0  0  0  0  0  0  0  0  0  0  0  0
  131.3570  121.2760  134.4830 C   0  0  0  0  0  0  0  0  0  0  0  0
  130.8830  120.0200  134.8700 C   0  0  0  0  0  0  0  0  0  0  0  0
  130.4560  119.7500  136.2890 C   0  0  0  0  0  0  0  0  0  0  0  0
  128.6870  119.9150  136.4710 S   0  0  0  0  0  6  0  0  0  0  0  0
  128.1100  119.9530  135.1390 O   0  0  0  0  0  0  0  0  0  0  0  0
  128.4140  120.9930  137.4070 O   0  0  0  0  0  0  0  0  0  0  0  0
  128.1500  118.3960  137.2210 C   0  0  0  0  0  0  0  0  0  0  0  0
  128.2190  118.2550  138.6100 C   0  0  0  0  0  0  0  0  0  0  0  0
  127.7740  117.0720  139.2000 C   0  0  0  0  0  0  0  0  0  0  0  0
  127.2760  116.0390  138.4060 C   0  0  0  0  0  0  0  0  0  0  0  0
  127.2310  116.1760  137.0170 C   0  0  0  0  0  0  0  0  0  0  0  0
  127.6780  117.3530  136.4170 C   0  0  0  0  0  0  0  0  0  0  0  0
  130.8420  118.9980  133.9140 C   0  0  0  0  0  0  0  0  0  0  0  0
  130.3860  117.7940  134.3000 F   0  0  0  0  0  0  0  0  0  0  0  0
  129.2780  117.6700  131.9330 H   0  0  0  0  0  0  0  0  0  0  0  0
  129.5330  116.4977  129.6111 H   0  0  0  0  0  0  0  0  0  0  0  0
  131.0639  115.9128  130.3665 H   0  0  0  0  0  0  0  0  0  0  0  0
  127.5915  115.2366  129.9013 H   0  0  0  0  0  0  0  0  0  0  0  0
  126.3142  113.4641  131.0965 H   0  0  0  0  0  0  0  0  0  0  0  0
  127.2641  112.4014  133.1417 H   0  0  0  0  0  0  0  0  0  0  0  0
  129.4952  113.1171  133.9969 H   0  0  0  0  0  0  0  0  0  0  0  0
  130.7792  114.8889  132.8060 H   0  0  0  0  0  0  0  0  0  0  0  0
  132.1498  122.4890  132.8816 H   0  0  0  0  0  0  0  0  0  0  0  0
  131.3972  122.0961  135.2151 H   0  0  0  0  0  0  0  0  0  0  0  0
  130.7516  118.7269  136.5646 H   0  0  0  0  0  0  0  0  0  0  0  0
  130.9447  120.4841  136.9464 H   0  0  0  0  0  0  0  0  0  0  0  0
  128.6203  119.0690  139.2316 H   0  0  0  0  0  0  0  0  0  0  0  0
  127.8159  116.9536  140.2928 H   0  0  0  0  0  0  0  0  0  0  0  0
  126.9169  115.1117  138.8763 H   0  0  0  0  0  0  0  0  0  0  0  0
  126.8429  115.3553  136.3959 H   0  0  0  0  0  0  0  0  0  0  0  0
  127.6596  117.4601  135.3224 H   0  0  0  0  0  0  0  0  0  0  0  0
  1  2  2  0
  2  3  1  0
  3  4  1  0
  4  5  1  0
  5  6  2  0
  6  7  1  0
  7  8  2  0
  8  9  1  0
  9 10  2  0
  2 11  1  0
 11 12  2  0
 12 13  1  0
 13 14  1  0
 13 15  1  0
 13 16  1  0
 12 17  1  0
 17 18  2  0
 18 19  1  0
 19 20  1  0
 20 21  1  0
 21 22  2  0
 21 23  2  0
 21 24  1  0
 24 25  2  0
 25 26  1  0
 26 27  2  0
 27 28  1  0
 28 29  2  0
 19 30  2  0
 30 31  1  0
 10  5  1  0
 30 11  1  0
 29 24  1  0
  3 32  1  0
  4 33  1  0
  4 34  1  0
  6 35  1  0
  7 36  1  0
  8 37  1  0
  9 38  1  0
 10 39  1  0
 17 40  1  0
 18 41  1  0
 20 42  1  0
 20 43  1  0
 25 44  1  0
 26 45  1  0
 27 46  1  0
 28 47  1  0
 29 48  1  0
M  END
$$$$

     RDKit          3D

 48 50  0  0  0  0  0  0  0  0999 V2000
  130.7560  119.0700  130.5110 O   0  0  0  0  0  0  0  0  0  0  0  0
  130.9130  118.7360  131.6770 C   0  0  0  0  0  0  0  0  0  0  0  0
  131.0420  117.4290  132.0790 N   0  0  0  0  0  0  0  0  0  0  0  0
  131.1030  116.3640  131.1060 C   0  0  0  0  0  0  0  0  0  0  0  0
  130.0410  115.3350  131.3800 C   0  0  0  0  0  0  0  0  0  0  0  0
  130.0250  114.6350  132.5940 C   0  0  0  0  0  0  0  0  0  0  0  0
  129.0590  113.6580  132.8360 C   0  0  0  0  0  0  0  0  0  0  0  0
  128.1050  113.3650  131.8640 C   0  0  0  0  0  0  0  0  0  0  0  0
  128.1170  114.0450  130.6480 C   0  0  0  0  0  0  0  0  0  0  0  0
  129.0830  115.0240  130.4040 C   0  0  0  0  0  0  0  0  0  0  0  0
  130.9800  119.7760  132.7350 C   0  0  0  0  0  0  0  0  0  0  0  0
  131.8770  120.8550  132.6330 C   0  0  0  0  0  0  0  0  0  0  0  0
  132.7400  121.0770  131.4110 C   0  0  0  0  0  0  0  0  0  0  0  0
  133.6910  122.0370  131.6330 F   0  0  0  0  0  0  0  0  0  0  0  0
  132.0500  121.5260  130.3300 F   0  0  0  0  0  0  0  0  0  0  0  0
  133.4390  119.9760  131.0330 F   0  0  0  0  0  0  0  0  0  0  0  0
  131.9580  121.7670  133.7050 C   0  0  0  0  0  0  0  0  0  0  0  0
  131.1650  121.6200  134.8450 C   0  0  0  0  0  0  0  0  0  0  0  0
  130.2650  120.5560  134.9430 C   0  0  0  0  0  0  0  0  0  0  0  0
  129.4240  120.3570  136.1780 C   0  0  0  0  0  0  0  0  0  0  0  0
  130.0950  119.0640  137.2110 S   0  0  0  0  0  6  0  0  0  0  0  0
  130.5460  119.6780  138.4470 O   0  0  0  0  0  0  0  0  0  0  0  0
  131.0200  118.2690  136.4210 O   0  0  0  0  0  0  0  0  0  0  0  0
  128.7090  118.0310  137.6270 C   0  0  0  0  0  0  0  0  0  0  0  0
  127.8550  117.5890  136.6130 C   0  0  0  0  0  0  0  0  0  0  0  0
  126.7830  116.7590  136.9370 C   0  0  0  0  0  0  0  0  0  0  0  0
  126.5630  116.3850  138.2620 C   0  0  0  0  0  0  0  0  0  0  0  0
  127.4050  116.8480  139.2750 C   0  0  0  0  0  0  0  0  0  0  0  0
  128.4790  117.6820  138.9620 C   0  0  0  0  0  0  0  0  0  0  0  0
  130.1790  119.6520  133.8790 C   0  0  0  0  0  0  0  0  0  0  0  0
  129.3110  118.6330  133.9870 F   0  0  0  0  0  0  0  0  0  0  0  0
  131.3400  117.2160  133.0220 H   0  0  0  0  0  0  0  0  0  0  0  0
  130.9491  116.7835  130.1008 H   0  0  0  0  0  0  0  0  0  0  0  0
  132.0893  115.8813  131.1701 H   0  0  0  0  0  0  0  0  0  0  0  0
  130.7801  114.8577  133.3622 H   0  0  0  0  0  0  0  0  0  0  0  0
  129.0506  113.1188  133.7947 H   0  0  0  0  0  0  0  0  0  0  0  0
  127.3419  112.5965  132.0566 H   0  0  0  0  0  0  0  0  0  0  0  0
  127.3654  113.8108  129.8797 H   0  0  0  0  0  0  0  0  0  0  0  0
  129.0924  115.5544  129.4404 H   0  0  0  0  0  0  0  0  0  0  0  0
  132.6601  122.6115  133.6422 H   0  0  0  0  0  0  0  0  0  0  0  0
  131.2493  122.3444  135.6685 H   0  0  0  0  0  0  0  0  0  0  0  0
  129.3975  121.2963  136.7498 H   0  0  0  0  0  0  0  0  0  0  0  0
  128.4101  120.0650  135.8670 H   0  0  0  0  0  0  0  0  0  0  0  0
  128.0270  117.8929  135.5699 H   0  0  0  0  0  0  0  0  0  0  0  0
  126.1093  116.3984  136.1457 H   0  0  0  0  0  0  0  0  0  0  0  0
  125.7215  115.7216  138.5106 H   0  0  0  0  0  0  0  0  0  0  0  0
  127.2217  116.5554  140.3194 H   0  0  0  0  0  0  0  0  0  0  0  0
  129.1381  118.0612  139.7569 H   0  0  0  0  0  0  0  0  0  0  0  0
  1  2  2  0
  2  3  1  0
  3  4  1  0
  4  5  1  0
  5  6  2  0
  6  7  1  0
  7  8  2  0
  8  9  1  0
  9 10  2  0
  2 11  1  0
 11 12  2  0
 12 13  1  0
 13 14  1  0
 13 15  1  0
 13 16  1  0
 12 17  1  0
 17 18  2  0
 18 19  1  0
 19 20  1  0
 20 21  1  0
 21 22  2  0
 21 23  2  0
 21 24  1  0
 24 25  2  0
 25 26  1  0
 26 27  2  0
 27 28  1  0
 28 29  2  0
 19 30  2  0
 30 31  1  0
 10  5  1  0
 30 11  1  0
 29 24  1  0
  3 32  1  0
  4 33  1  0
  4 34  1  0
  6 35  1  0
  7 36  1  0
  8 37  1  0
  9 38  1  0
 10 39  1  0
 17 40  1  0
 18 41  1  0
 20 42  1  0
 20 43  1  0
 25 44  1  0
 26 45  1  0
 27 46  1  0
 28 47  1  0
 29 48  1  0
M  END
$$$$

     RDKit          3D

 48 50  0  0  0  0  0  0  0  0999 V2000
  130.8540  118.8090  130.3660 O   0  0  0  0  0  0  0  0  0  0  0  0
  130.8480  118.5590  131.5640 C   0  0  0  0  0  0  0  0  0  0  0  0
  130.9110  117.2830  132.0700 N   0  0  0  0  0  0  0  0  0  0  0  0
  131.0960  116.1520  131.1910 C   0  0  0  0  0  0  0  0  0  0  0  0
  130.0050  115.1380  131.3980 C   0  0  0  0  0  0  0  0  0  0  0  0
  129.0090  114.9590  130.4280 C   0  0  0  0  0  0  0  0  0  0  0  0
  127.9780  114.0400  130.6330 C   0  0  0  0  0  0  0  0  0  0  0  0
  127.9280  113.3000  131.8120 C   0  0  0  0  0  0  0  0  0  0  0  0
  128.9060  113.4780  132.7890 C   0  0  0  0  0  0  0  0  0  0  0  0
  129.9380  114.3950  132.5860 C   0  0  0  0  0  0  0  0  0  0  0  0
  130.7790  119.6700  132.5460 C   0  0  0  0  0  0  0  0  0  0  0  0
  131.7160  120.7190  132.5180 C   0  0  0  0  0  0  0  0  0  0  0  0
  132.7720  120.8330  131.4420 C   0  0  0  0  0  0  0  0  0  0  0  0
  133.4120  119.6400  131.2350 F   0  0  0  0  0  0  0  0  0  0  0  0
  133.7700  121.7050  131.7470 F   0  0  0  0  0  0  0  0  0  0  0  0
  132.2740  121.1760  130.2270 F   0  0  0  0  0  0  0  0  0  0  0  0
  131.6550  121.7040  133.5260 C   0  0  0  0  0  0  0  0  0  0  0  0
  130.6830  121.6570  134.5280 C   0  0  0  0  0  0  0  0  0  0  0  0
  129.7440  120.6240  134.5500 C   0  0  0  0  0  0  0  0  0  0  0  0
  128.7090  120.5330  135.6420 C   0  0  0  0  0  0  0  0  0  0  0  0
  129.2760  119.4950  136.9800 S   0  0  0  0  0  6  0  0  0  0  0  0
  128.6110  119.9390  138.1930 O   0  0  0  0  0  0  0  0  0  0  0  0
  130.7270  119.4280  136.9360 O   0  0  0  0  0  0  0  0  0  0  0  0
  128.6460  117.8730  136.6150 C   0  0  0  0  0  0  0  0  0  0  0  0
  127.2800  117.6190  136.7640 C   0  0  0  0  0  0  0  0  0  0  0  0
  126.7820  116.3540  136.4540 C   0  0  0  0  0  0  0  0  0  0  0  0
  127.6460  115.3530  136.0090 C   0  0  0  0  0  0  0  0  0  0  0  0
  129.0130  115.6050  135.8840 C   0  0  0  0  0  0  0  0  0  0  0  0
  129.5210  116.8660  136.1960 C   0  0  0  0  0  0  0  0  0  0  0  0
  129.8010  119.6470  133.5490 C   0  0  0  0  0  0  0  0  0  0  0  0
  128.8920  118.6580  133.5830 F   0  0  0  0  0  0  0  0  0  0  0  0
  131.0770  117.1380  133.0580 H   0  0  0  0  0  0  0  0  0  0  0  0
  131.0748  116.4980  130.1470 H   0  0  0  0  0  0  0  0  0  0  0  0
  132.0648  115.6821  131.4161 H   0  0  0  0  0  0  0  0  0  0  0  0
  129.0399  115.5467  129.4987 H   0  0  0  0  0  0  0  0  0  0  0  0
  127.2049  113.9003  129.8631 H   0  0  0  0  0  0  0  0  0  0  0  0
  127.1164  112.5749  131.9721 H   0  0  0  0  0  0  0  0  0  0  0  0
  128.8643  112.8951  133.7209 H   0  0  0  0  0  0  0  0  0  0  0  0
  130.7041  114.5362  133.3627 H   0  0  0  0  0  0  0  0  0  0  0  0
  132.3871  122.5250  133.5228 H   0  0  0  0  0  0  0  0  0  0  0  0
  130.6572  122.4372  135.3030 H   0  0  0  0  0  0  0  0  0  0  0  0
  128.5072  121.5420  136.0308 H   0  0  0  0  0  0  0  0  0  0  0  0
  127.7941  120.0911  135.2204 H   0  0  0  0  0  0  0  0  0  0  0  0
  126.6041  118.4094  137.1224 H   0  0  0  0  0  0  0  0  0  0  0  0
  125.7073  116.1452  136.5603 H   0  0  0  0  0  0  0  0  0  0  0  0
  127.2476  114.3596  135.7553 H   0  0  0  0  0  0  0  0  0  0  0  0
  129.6898  114.8092  135.5395 H   0  0  0  0  0  0  0  0  0  0  0  0
  130.5994  117.0663  136.1132 H   0  0  0  0  0  0  0  0  0  0  0  0
  1  2  2  0
  2  3  1  0
  3  4  1  0
  4  5  1  0
  5  6  2  0
  6  7  1  0
  7  8  2  0
  8  9  1  0
  9 10  2  0
  2 11  1  0
 11 12  2  0
 12 13  1  0
 13 14  1  0
 13 15  1  0
 13 16  1  0
 12 17  1  0
 17 18  2  0
 18 19  1  0
 19 20  1  0
 20 21  1  0
 21 22  2  0
 21 23  2  0
 21 24  1  0
 24 25  2  0
 25 26  1  0
 26 27  2  0
 27 28  1  0
 28 29  2  0
 19 30  2  0
 30 31  1  0
 10  5  1  0
 30 11  1  0
 29 24  1  0
  3 32  1  0
  4 33  1  0
  4 34  1  0
  6 35  1  0
  7 36  1  0
  8 37  1  0
  9 38  1  0
 10 39  1  0
 17 40  1  0
 18 41  1  0
 20 42  1  0
 20 43  1  0
 25 44  1  0
 26 45  1  0
 27 46  1  0
 28 47  1  0
 29 48  1  0
M  END
$$$$

