
     RDKit          3D

 55 58  0  0  0  0  0  0  0  0999 V2000
  130.8460  119.0520  130.5620 O   0  0  0  0  0  0  0  0  0  0  0  0
  130.7820  118.6430  131.7140 C   0  0  0  0  0  0  0  0  0  0  0  0
  130.5830  117.3440  132.1350 N   0  0  0  0  0  0  0  0  0  0  0  0
  130.3960  116.2000  131.3310 C   0  0  0  0  0  0  0  0  0  0  0  0
  129.1550  115.6160  131.0810 C   0  0  0  0  0  0  0  0  0  0  0  0
  129.0610  114.4830  130.2710 C   0  0  0  0  0  0  0  0  0  0  0  0
  130.2060  113.9250  129.7040 C   0  0  0  0  0  0  0  0  0  0  0  0
  131.4690  114.4870  129.9380 C   0  0  0  0  0  0  0  0  0  0  0  0
  132.6820  113.9020  129.3420 C   0  0  0  0  0  0  0  0  0  0  0  0
  132.6290  113.2180  128.1160 C   0  0  0  0  0  0  0  0  0  0  0  0
  133.7790  112.6640  127.5490 C   0  0  0  0  0  0  0  0  0  0  0  0
  135.0040  112.7840  128.2000 C   0  0  0  0  0  0  0  0  0  0  0  0
  135.0800  113.4560  129.4170 C   0  0  0  0  0  0  0  0  0  0  0  0
  133.9270  114.0110  129.9820 C   0  0  0  0  0  0  0  0  0  0  0  0
  131.5430  115.6280  130.7570 C   0  0  0  0  0  0  0  0  0  0  0  0
  130.9200  119.6460  132.7970 C   0  0  0  0  0  0  0  0  0  0  0  0
  131.7910  120.7420  132.6670 C   0  0  0  0  0  0  0  0  0  0  0  0
  132.5850  120.9900  131.4060 C   0  0  0  0  0  0  0  0  0  0  0  0
  133.3370  119.9260  131.0210 F   0  0  0  0  0  0  0  0  0  0  0  0
  131.8230  121.3640  130.3440 F   0  0  0  0  0  0  0  0  0  0  0  0
  133.4800  122.0150  131.5650 F   0  0  0  0  0  0  0  0  0  0  0  0
  131.9060  121.6410  133.7480 C   0  0  0  0  0  0  0  0  0  0  0  0
  131.1630  121.4650  134.9190 C   0  0  0  0  0  0  0  0  0  0  0  0
  130.2950  120.3770  135.0450 C   0  0  0  0  0  0  0  0  0  0  0  0
  129.4430  120.1890  136.2700 C   0  0  0  0  0  0  0  0  0  0  0  0
  130.1560  118.8710  137.2530 S   0  0  0  0  0  6  0  0  0  0  0  0
  130.2370  119.2890  138.6410 O   0  0  0  0  0  0  0  0  0  0  0  0
  131.3310  118.3660  136.5640 O   0  0  0  0  0  0  0  0  0  0  0  0
  128.9070  117.6070  137.1600 C   0  0  0  0  0  0  0  0  0  0  0  0
  127.5990  117.9070  137.5480 C   0  0  0  0  0  0  0  0  0  0  0  0
  126.6200  116.9160  137.4760 C   0  0  0  0  0  0  0  0  0  0  0  0
  126.9540  115.6360  137.0300 C   0  0  0  0  0  0  0  0  0  0  0  0
  128.2660  115.3390  136.6590 C   0  0  0  0  0  0  0  0  0  0  0  0
  129.2510  116.3230  136.7280 C   0  0  0  0  0  0  0  0  0  0  0  0
  130.1940  119.4740  133.9800 C   0  0  0  0  0  0  0  0  0  0  0  0
  129.3710  118.4230  134.1180 F   0  0  0  0  0  0  0  0  0  0  0  0
  130.5990  117.1720  133.1360 H   0  0  0  0  0  0  0  0  0  0  0  0
  128.2463  116.0498  131.5238 H   0  0  0  0  0  0  0  0  0  0  0  0
  128.0781  114.0279  130.0790 H   0  0  0  0  0  0  0  0  0  0  0  0
  130.1174  113.0335  129.0657 H   0  0  0  0  0  0  0  0  0  0  0  0
  131.6660  113.1171  127.5940 H   0  0  0  0  0  0  0  0  0  0  0  0
  133.7169  112.1327  126.5878 H   0  0  0  0  0  0  0  0  0  0  0  0
  135.9101  112.3486  127.7535 H   0  0  0  0  0  0  0  0  0  0  0  0
  136.0463  113.5504  129.9340 H   0  0  0  0  0  0  0  0  0  0  0  0
  133.9968  114.5414  130.9432 H   0  0  0  0  0  0  0  0  0  0  0  0
  132.5246  116.0841  130.9530 H   0  0  0  0  0  0  0  0  0  0  0  0
  132.5930  122.4963  133.6680 H   0  0  0  0  0  0  0  0  0  0  0  0
  131.2619  122.1855  135.7443 H   0  0  0  0  0  0  0  0  0  0  0  0
  129.4221  121.1202  136.8552 H   0  0  0  0  0  0  0  0  0  0  0  0
  128.4134  119.9319  135.9803 H   0  0  0  0  0  0  0  0  0  0  0  0
  127.3435  118.9150  137.9068 H   0  0  0  0  0  0  0  0  0  0  0  0
  125.5848  117.1431  137.7706 H   0  0  0  0  0  0  0  0  0  0  0  0
  126.1790  114.8576  136.9707 H   0  0  0  0  0  0  0  0  0  0  0  0
  128.5232  114.3274  136.3118 H   0  0  0  0  0  0  0  0  0  0  0  0
  130.2885  116.0913  136.4453 H   0  0  0  0  0  0  0  0  0  0  0  0
  1  2  2  0
  2  3  1  0
  3  4  1  0
  4  5  2  0
  5  6  1  0
  6  7  2  0
  7  8  1  0
  8  9  1  0
  9 10  2  0
 10 11  1  0
 11 12  2  0
 12 13  1  0
 13 14  2  0
  8 15  2  0
  2 16  1  0
 16 17  2  0
 17 18  1  0
 18 19  1  0
 18 20  1  0
 18 21  1  0
 17 22  1  0
 22 23  2  0
 23 24  1  0
 24 25  1  0
 25 26  1  0
 26 27  2  0
 26 28  2  0
 26 29  1  0
 29 30  2  0
 30 31  1  0
 31 32  2  0
 32 33  1  0
 33 34  2  0
 24 35  2  0
 35 36  1  0
 15  4  1  0
 35 16  1  0
 14  9  1  0
 34 29  1  0
  3 37  1  0
  5 38  1  0
  6 39  1  0
  7 40  1  0
 10 41  1  0
 11 42  1  0
 12 43  1  0
 13 44  1  0
 14 45  1  0
 15 46  1  0
 22 47  1  0
 23 48  1  0
 25 49  1  0
 25 50  1  0
 30 51  1  0
 31 52  1  0
 32 53  1  0
 33 54  1  0
 34 55  1  0
M  END
$$$$

     RDKit          3D

 55 58  0  0  0  0  0  0  0  0999 V2000
  130.6830  118.9190  130.7330 O   0  0  0  0  0  0  0  0  0  0  0  0
  130.6100  118.4850  131.8740 C   0  0  0  0  0  0  0  0  0  0  0  0
  130.3970  117.1780  132.2650 N   0  0  0  0  0  0  0  0  0  0  0  0
  130.2030  116.0540  131.4340 C   0  0  0  0  0  0  0  0  0  0  0  0
  128.9520  115.5300  131.1110 C   0  0  0  0  0  0  0  0  0  0  0  0
  128.8500  114.4140  130.2800 C   0  0  0  0  0  0  0  0  0  0  0  0
  129.9980  113.8120  129.7640 C   0  0  0  0  0  0  0  0  0  0  0  0
  131.2700  114.3140  130.0720 C   0  0  0  0  0  0  0  0  0  0  0  0
  132.4860  113.6830  129.5320 C   0  0  0  0  0  0  0  0  0  0  0  0
  133.4400  113.1020  130.3850 C   0  0  0  0  0  0  0  0  0  0  0  0
  134.5940  112.5020  129.8740 C   0  0  0  0  0  0  0  0  0  0  0  0
  134.8130  112.4730  128.4990 C   0  0  0  0  0  0  0  0  0  0  0  0
  133.8820  113.0430  127.6360 C   0  0  0  0  0  0  0  0  0  0  0  0
  132.7280  113.6420  128.1490 C   0  0  0  0  0  0  0  0  0  0  0  0
  131.3510  115.4400  130.9130 C   0  0  0  0  0  0  0  0  0  0  0  0
  130.7540  119.4610  132.9810 C   0  0  0  0  0  0  0  0  0  0  0  0
  131.6150  120.5660  132.8690 C   0  0  0  0  0  0  0  0  0  0  0  0
  132.3930  120.8510  131.6060 C   0  0  0  0  0  0  0  0  0  0  0  0
  133.2530  121.8970  131.7240 F   0  0  0  0  0  0  0  0  0  0  0  0
  133.1000  119.7850  131.1460 F   0  0  0  0  0  0  0  0  0  0  0  0
  131.5680  121.1910  130.5670 F   0  0  0  0  0  0  0  0  0  0  0  0
  131.7360  121.4380  133.9710 C   0  0  0  0  0  0  0  0  0  0  0  0
  131.0080  121.2290  135.1450 C   0  0  0  0  0  0  0  0  0  0  0  0
  130.1490  120.1310  135.2530 C   0  0  0  0  0  0  0  0  0  0  0  0
  129.3120  119.9070  136.4830 C   0  0  0  0  0  0  0  0  0  0  0  0
  130.1440  118.7020  137.5160 S   0  0  0  0  0  6  0  0  0  0  0  0
  130.4400  119.2930  138.8090 O   0  0  0  0  0  0  0  0  0  0  0  0
  131.1930  118.0720  136.7350 O   0  0  0  0  0  0  0  0  0  0  0  0
  128.8760  117.4820  137.7770 C   0  0  0  0  0  0  0  0  0  0  0  0
  128.7190  116.4480  136.8510 C   0  0  0  0  0  0  0  0  0  0  0  0
  127.7230  115.4920  137.0550 C   0  0  0  0  0  0  0  0  0  0  0  0
  126.8890  115.5800  138.1710 C   0  0  0  0  0  0  0  0  0  0  0  0
  127.0410  116.6250  139.0840 C   0  0  0  0  0  0  0  0  0  0  0  0
  128.0330  117.5850  138.8870 C   0  0  0  0  0  0  0  0  0  0  0  0
  130.0420  119.2540  134.1680 C   0  0  0  0  0  0  0  0  0  0  0  0
  129.2270  118.1950  134.2880 F   0  0  0  0  0  0  0  0  0  0  0  0
  130.4070  116.9830  133.2620 H   0  0  0  0  0  0  0  0  0  0  0  0
  128.0416  115.9985  131.5131 H   0  0  0  0  0  0  0  0  0  0  0  0
  127.8592  114.0066  130.0303 H   0  0  0  0  0  0  0  0  0  0  0  0
  129.9039  112.9338  129.1083 H   0  0  0  0  0  0  0  0  0  0  0  0
  133.2756  113.1199  131.4725 H   0  0  0  0  0  0  0  0  0  0  0  0
  135.3293  112.0527  130.5577 H   0  0  0  0  0  0  0  0  0  0  0  0
  135.7206  112.0002  128.0957 H   0  0  0  0  0  0  0  0  0  0  0  0
  134.0543  113.0222  126.5498 H   0  0  0  0  0  0  0  0  0  0  0  0
  131.9975  114.0886  127.4584 H   0  0  0  0  0  0  0  0  0  0  0  0
  132.3400  115.8486  131.1679 H   0  0  0  0  0  0  0  0  0  0  0  0
  132.4168  122.2994  133.9048 H   0  0  0  0  0  0  0  0  0  0  0  0
  131.1108  121.9300  135.9865 H   0  0  0  0  0  0  0  0  0  0  0  0
  129.1977  120.8529  137.0328 H   0  0  0  0  0  0  0  0  0  0  0  0
  128.3138  119.5407  136.2013 H   0  0  0  0  0  0  0  0  0  0  0  0
  129.3742  116.3879  135.9694 H   0  0  0  0  0  0  0  0  0  0  0  0
  127.5951  114.6691  136.3364 H   0  0  0  0  0  0  0  0  0  0  0  0
  126.1081  114.8221  138.3318 H   0  0  0  0  0  0  0  0  0  0  0  0
  126.3780  116.6912  139.9592 H   0  0  0  0  0  0  0  0  0  0  0  0
  128.1509  118.4155  139.5985 H   0  0  0  0  0  0  0  0  0  0  0  0
  1  2  2  0
  2  3  1  0
  3  4  1  0
  4  5  2  0
  5  6  1  0
  6  7  2  0
  7  8  1  0
  8  9  1  0
  9 10  2  0
 10 11  1  0
 11 12  2  0
 12 13  1  0
 13 14  2  0
  8 15  2  0
  2 16  1  0
 16 17  2  0
 17 18  1  0
 18 19  1  0
 18 20  1  0
 18 21  1  0
 17 22  1  0
 22 23  2  0
 23 24  1  0
 24 25  1  0
 25 26  1  0
 26 27  2  0
 26 28  2  0
 26 29  1  0
 29 30  2  0
 30 31  1  0
 31 32  2  0
 32 33  1  0
 33 34  2  0
 24 35  2  0
 35 36  1  0
 15  4  1  0
 35 16  1  0
 14  9  1  0
 34 29  1  0
  3 37  1  0
  5 38  1  0
  6 39  1  0
  7 40  1  0
 10 41  1  0
 11 42  1  0
 12 43  1  0
 13 44  1  0
 14 45  1  0
 15 46  1  0
 22 47  1  0
 23 48  1  0
 25 49  1  0
 25 50  1  0
 30 51  1  0
 31 52  1  0
 32 53  1  0
 33 54  1  0
 34 55  1  0
M  END
$$$$

     RDKit          3D

 55 58  0  0  0  0  0  0  0  0999 V2000
  130.7440  119.0130  130.6220 O   0  0  0  0  0  0  0  0  0  0  0  0
  130.6880  118.6090  131.7750 C   0  0  0  0  0  0  0  0  0  0  0  0
  130.4750  117.3140  132.2040 N   0  0  0  0  0  0  0  0  0  0  0  0
  130.2600  116.1700  131.4060 C   0  0  0  0  0  0  0  0  0  0  0  0
  129.0010  115.6530  131.1080 C   0  0  0  0  0  0  0  0  0  0  0  0
  128.8790  114.5150  130.3090 C   0  0  0  0  0  0  0  0  0  0  0  0
  130.0150  113.8860  129.8000 C   0  0  0  0  0  0  0  0  0  0  0  0
  131.2960  114.3800  130.0840 C   0  0  0  0  0  0  0  0  0  0  0  0
  132.4990  113.7210  129.5520 C   0  0  0  0  0  0  0  0  0  0  0  0
  133.4120  113.0800  130.4070 C   0  0  0  0  0  0  0  0  0  0  0  0
  134.5540  112.4520  129.9030 C   0  0  0  0  0  0  0  0  0  0  0  0
  134.8040  112.4550  128.5330 C   0  0  0  0  0  0  0  0  0  0  0  0
  133.9140  113.0850  127.6670 C   0  0  0  0  0  0  0  0  0  0  0  0
  132.7710  113.7120  128.1740 C   0  0  0  0  0  0  0  0  0  0  0  0
  131.3970  115.5280  130.8920 C   0  0  0  0  0  0  0  0  0  0  0  0
  130.8560  119.6130  132.8530 C   0  0  0  0  0  0  0  0  0  0  0  0
  131.7620  120.6790  132.7200 C   0  0  0  0  0  0  0  0  0  0  0  0
  132.5690  120.8930  131.4610 C   0  0  0  0  0  0  0  0  0  0  0  0
  133.2620  119.7930  131.0680 F   0  0  0  0  0  0  0  0  0  0  0  0
  131.8280  121.3150  130.4020 F   0  0  0  0  0  0  0  0  0  0  0  0
  133.5190  121.8660  131.6270 F   0  0  0  0  0  0  0  0  0  0  0  0
  131.9030  121.5790  133.7970 C   0  0  0  0  0  0  0  0  0  0  0  0
  131.1510  121.4360  134.9660 C   0  0  0  0  0  0  0  0  0  0  0  0
  130.2470  120.3780  135.0940 C   0  0  0  0  0  0  0  0  0  0  0  0
  129.3850  120.2250  136.3180 C   0  0  0  0  0  0  0  0  0  0  0  0
  130.1010  118.9510  137.3550 S   0  0  0  0  0  6  0  0  0  0  0  0
  130.5130  119.5300  138.6210 O   0  0  0  0  0  0  0  0  0  0  0  0
  131.0370  118.1800  136.5560 O   0  0  0  0  0  0  0  0  0  0  0  0
  128.7040  117.9020  137.6900 C   0  0  0  0  0  0  0  0  0  0  0  0
  128.4110  117.5520  139.0110 C   0  0  0  0  0  0  0  0  0  0  0  0
  127.3160  116.7290  139.2730 C   0  0  0  0  0  0  0  0  0  0  0  0
  126.5310  116.2540  138.2210 C   0  0  0  0  0  0  0  0  0  0  0  0
  126.8390  116.5940  136.9030 C   0  0  0  0  0  0  0  0  0  0  0  0
  127.9310  117.4170  136.6310 C   0  0  0  0  0  0  0  0  0  0  0  0
  130.1200  119.4720  134.0350 C   0  0  0  0  0  0  0  0  0  0  0  0
  129.2620  118.4500  134.1760 F   0  0  0  0  0  0  0  0  0  0  0  0
  130.5000  117.1450  133.2050 H   0  0  0  0  0  0  0  0  0  0  0  0
  128.0996  116.1436  131.5040 H   0  0  0  0  0  0  0  0  0  0  0  0
  127.8815  114.1121  130.0796 H   0  0  0  0  0  0  0  0  0  0  0  0
  129.9046  112.9921  129.1685 H   0  0  0  0  0  0  0  0  0  0  0  0
  133.2244  113.0726  131.4909 H   0  0  0  0  0  0  0  0  0  0  0  0
  135.2559  111.9550  130.5888 H   0  0  0  0  0  0  0  0  0  0  0  0
  135.7028  111.9607  128.1358 H   0  0  0  0  0  0  0  0  0  0  0  0
  134.1097  113.0896  126.5846 H   0  0  0  0  0  0  0  0  0  0  0  0
  132.0734  114.2063  127.4819 H   0  0  0  0  0  0  0  0  0  0  0  0
  132.3927  115.9323  131.1266 H   0  0  0  0  0  0  0  0  0  0  0  0
  132.6192  122.4099  133.7150 H   0  0  0  0  0  0  0  0  0  0  0  0
  131.2709  122.1578  135.7874 H   0  0  0  0  0  0  0  0  0  0  0  0
  129.3491  121.1764  136.8689 H   0  0  0  0  0  0  0  0  0  0  0  0
  128.3611  119.9465  136.0280 H   0  0  0  0  0  0  0  0  0  0  0  0
  129.0378  117.9220  139.8358 H   0  0  0  0  0  0  0  0  0  0  0  0
  127.0707  116.4540  140.3094 H   0  0  0  0  0  0  0  0  0  0  0  0
  125.6655  115.6086  138.4319 H   0  0  0  0  0  0  0  0  0  0  0  0
  126.2196  116.2123  136.0780 H   0  0  0  0  0  0  0  0  0  0  0  0
  128.1819  117.6821  135.5933 H   0  0  0  0  0  0  0  0  0  0  0  0
  1  2  2  0
  2  3  1  0
  3  4  1  0
  4  5  2  0
  5  6  1  0
  6  7  2  0
  7  8  1  0
  8  9  1  0
  9 10  2  0
 10 11  1  0
 11 12  2  0
 12 13  1  0
 13 14  2  0
  8 15  2  0
  2 16  1  0
 16 17  2  0
 17 18  1  0
 18 19  1  0
 18 20  1  0
 18 21  1  0
 17 22  1  0
 22 23  2  0
 23 24  1  0
 24 25  1  0
 25 26  1  0
 26 27  2  0
 26 28  2  0
 26 29  1  0
 29 30  2  0
 30 31  1  0
 31 32  2  0
 32 33  1  0
 33 34  2  0
 24 35  2  0
 35 36  1  0
 15  4  1  0
 35 16  1  0
 14  9  1  0
 34 29  1  0
  3 37  1  0
  5 38  1  0
  6 39  1  0
  7 40  1  0
 10 41  1  0
 11 42  1  0
 12 43  1  0
 13 44  1  0
 14 45  1  0
 15 46  1  0
 22 47  1  0
 23 48  1  0
 25 49  1  0
 25 50  1  0
 30 51  1  0
 31 52  1  0
 32 53  1  0
 33 54  1  0
 34 55  1  0
M  END
$$$$

     RDKit          3D

 55 58  0  0  0  0  0  0  0  0999 V2000
  130.7480  118.9750  130.6460 O   0  0  0  0  0  0  0  0  0  0  0  0
  130.6710  118.5580  131.7940 C   0  0  0  0  0  0  0  0  0  0  0  0
  130.4490  117.2580  132.2030 N   0  0  0  0  0  0  0  0  0  0  0  0
  130.2480  116.1240  131.3880 C   0  0  0  0  0  0  0  0  0  0  0  0
  128.9940  115.6070  131.0660 C   0  0  0  0  0  0  0  0  0  0  0  0
  128.8860  114.4790  130.2510 C   0  0  0  0  0  0  0  0  0  0  0  0
  130.0310  113.8600  129.7500 C   0  0  0  0  0  0  0  0  0  0  0  0
  131.3060  114.3540  130.0570 C   0  0  0  0  0  0  0  0  0  0  0  0
  132.5180  113.7040  129.5320 C   0  0  0  0  0  0  0  0  0  0  0  0
  132.7970  113.6970  128.1550 C   0  0  0  0  0  0  0  0  0  0  0  0
  133.9480  113.0810  127.6550 C   0  0  0  0  0  0  0  0  0  0  0  0
  134.8400  112.4610  128.5260 C   0  0  0  0  0  0  0  0  0  0  0  0
  134.5830  112.4550  129.8940 C   0  0  0  0  0  0  0  0  0  0  0  0
  133.4310  113.0720  130.3920 C   0  0  0  0  0  0  0  0  0  0  0  0
  131.3930  115.4910  130.8810 C   0  0  0  0  0  0  0  0  0  0  0  0
  130.8200  119.5480  132.8870 C   0  0  0  0  0  0  0  0  0  0  0  0
  131.7020  120.6360  132.7670 C   0  0  0  0  0  0  0  0  0  0  0  0
  132.5000  120.8870  131.5090 C   0  0  0  0  0  0  0  0  0  0  0  0
  131.7320  121.2180  130.4380 F   0  0  0  0  0  0  0  0  0  0  0  0
  133.4520  121.8480  131.6480 F   0  0  0  0  0  0  0  0  0  0  0  0
  133.1910  119.7720  131.1150 F   0  0  0  0  0  0  0  0  0  0  0  0
  131.8270  121.5230  133.8570 C   0  0  0  0  0  0  0  0  0  0  0  0
  131.0820  121.3450  135.0260 C   0  0  0  0  0  0  0  0  0  0  0  0
  130.2020  120.2650  135.1410 C   0  0  0  0  0  0  0  0  0  0  0  0
  129.3470  120.0750  136.3640 C   0  0  0  0  0  0  0  0  0  0  0  0
  130.1160  118.8300  137.3990 S   0  0  0  0  0  6  0  0  0  0  0  0
  130.4620  119.4110  138.6830 O   0  0  0  0  0  0  0  0  0  0  0  0
  131.1150  118.1300  136.6110 O   0  0  0  0  0  0  0  0  0  0  0  0
  128.7780  117.6920  137.6840 C   0  0  0  0  0  0  0  0  0  0  0  0
  128.2440  116.9790  136.6080 C   0  0  0  0  0  0  0  0  0  0  0  0
  127.1950  116.0880  136.8320 C   0  0  0  0  0  0  0  0  0  0  0  0
  126.6810  115.9230  138.1190 C   0  0  0  0  0  0  0  0  0  0  0  0
  127.2090  116.6500  139.1870 C   0  0  0  0  0  0  0  0  0  0  0  0
  128.2580  117.5430  138.9730 C   0  0  0  0  0  0  0  0  0  0  0  0
  130.0910  119.3730  134.0680 C   0  0  0  0  0  0  0  0  0  0  0  0
  129.2560  118.3310  134.1960 F   0  0  0  0  0  0  0  0  0  0  0  0
  130.4570  117.0770  133.2020 H   0  0  0  0  0  0  0  0  0  0  0  0
  128.0859  116.0900  131.4558 H   0  0  0  0  0  0  0  0  0  0  0  0
  127.8930  114.0763  130.0027 H   0  0  0  0  0  0  0  0  0  0  0  0
  129.9321  112.9735  129.1063 H   0  0  0  0  0  0  0  0  0  0  0  0
  132.0983  114.1842  127.4590 H   0  0  0  0  0  0  0  0  0  0  0  0
  134.1490  113.0861  126.5735 H   0  0  0  0  0  0  0  0  0  0  0  0
  135.7464  111.9767  128.1336 H   0  0  0  0  0  0  0  0  0  0  0  0
  135.2861  111.9649  130.5835 H   0  0  0  0  0  0  0  0  0  0  0  0
  133.2368  113.0622  131.4747 H   0  0  0  0  0  0  0  0  0  0  0  0
  132.3846  115.8943  131.1344 H   0  0  0  0  0  0  0  0  0  0  0  0
  132.5241  122.3709  133.7854 H   0  0  0  0  0  0  0  0  0  0  0  0
  131.1884  122.0568  135.8579 H   0  0  0  0  0  0  0  0  0  0  0  0
  129.2716  121.0233  136.9163 H   0  0  0  0  0  0  0  0  0  0  0  0
  128.3354  119.7550  136.0737 H   0  0  0  0  0  0  0  0  0  0  0  0
  128.6470  117.1190  135.5941 H   0  0  0  0  0  0  0  0  0  0  0  0
  126.7723  115.5148  135.9937 H   0  0  0  0  0  0  0  0  0  0  0  0
  125.8558  115.2166  138.2925 H   0  0  0  0  0  0  0  0  0  0  0  0
  126.7971  116.5183  140.1984 H   0  0  0  0  0  0  0  0  0  0  0  0
  128.6722  118.1244  139.8099 H   0  0  0  0  0  0  0  0  0  0  0  0
  1  2  2  0
  2  3  1  0
  3  4  1  0
  4  5  2  0
  5  6  1  0
  6  7  2  0
  7  8  1  0
  8  9  1  0
  9 10  2  0
 10 11  1  0
 11 12  2  0
 12 13  1  0
 13 14  2  0
  8 15  2  0
  2 16  1  0
 16 17  2  0
 17 18  1  0
 18 19  1  0
 18 20  1  0
 18 21  1  0
 17 22  1  0
 22 23  2  0
 23 24  1  0
 24 25  1  0
 25 26  1  0
 26 27  2  0
 26 28  2  0
 26 29  1  0
 29 30  2  0
 30 31  1  0
 31 32  2  0
 32 33  1  0
 33 34  2  0
 24 35  2  0
 35 36  1  0
 15  4  1  0
 35 16  1  0
 14  9  1  0
 34 29  1  0
  3 37  1  0
  5 38  1  0
  6 39  1  0
  7 40  1  0
 10 41  1  0
 11 42  1  0
 12 43  1  0
 13 44  1  0
 14 45  1  0
 15 46  1  0
 22 47  1  0
 23 48  1  0
 25 49  1  0
 25 50  1  0
 30 51  1  0
 31 52  1  0
 32 53  1  0
 33 54  1  0
 34 55  1  0
M  END
$$$$

     RDKit          3D

 55 58  0  0  0  0  0  0  0  0999 V2000
  130.7790  118.9360  130.4910 O   0  0  0  0  0  0  0  0  0  0  0  0
  130.6030  118.5690  131.6450 C   0  0  0  0  0  0  0  0  0  0  0  0
  130.3320  117.2900  132.0890 N   0  0  0  0  0  0  0  0  0  0  0  0
  130.1830  116.1240  131.3080 C   0  0  0  0  0  0  0  0  0  0  0  0
  128.9520  115.5710  130.9590 C   0  0  0  0  0  0  0  0  0  0  0  0
  128.8950  114.4130  130.1820 C   0  0  0  0  0  0  0  0  0  0  0  0
  130.0690  113.7990  129.7470 C   0  0  0  0  0  0  0  0  0  0  0  0
  131.3230  114.3280  130.0830 C   0  0  0  0  0  0  0  0  0  0  0  0
  132.5660  113.6840  129.6290 C   0  0  0  0  0  0  0  0  0  0  0  0
  133.3550  112.9280  130.5120 C   0  0  0  0  0  0  0  0  0  0  0  0
  134.5340  112.3150  130.0820 C   0  0  0  0  0  0  0  0  0  0  0  0
  134.9450  112.4480  128.7580 C   0  0  0  0  0  0  0  0  0  0  0  0
  134.1800  113.1920  127.8650 C   0  0  0  0  0  0  0  0  0  0  0  0
  133.0000  113.8050  128.2980 C   0  0  0  0  0  0  0  0  0  0  0  0
  131.3580  115.4960  130.8680 C   0  0  0  0  0  0  0  0  0  0  0  0
  130.6760  119.6040  132.7040 C   0  0  0  0  0  0  0  0  0  0  0  0
  131.6550  120.6110  132.6700 C   0  0  0  0  0  0  0  0  0  0  0  0
  132.6450  120.7300  131.5340 C   0  0  0  0  0  0  0  0  0  0  0  0
  133.3040  119.5720  131.2680 F   0  0  0  0  0  0  0  0  0  0  0  0
  132.0940  121.1690  130.3720 F   0  0  0  0  0  0  0  0  0  0  0  0
  133.6310  121.6390  131.8140 F   0  0  0  0  0  0  0  0  0  0  0  0
  131.6960  121.5450  133.7260 C   0  0  0  0  0  0  0  0  0  0  0  0
  130.7770  121.4910  134.7780 C   0  0  0  0  0  0  0  0  0  0  0  0
  129.8010  120.4900  134.8070 C   0  0  0  0  0  0  0  0  0  0  0  0
  128.7660  120.4350  135.8970 C   0  0  0  0  0  0  0  0  0  0  0  0
  129.3640  119.3420  137.1860 S   0  0  0  0  0  6  0  0  0  0  0  0
  128.7740  119.7220  138.4570 O   0  0  0  0  0  0  0  0  0  0  0  0
  130.8030  119.2140  137.0490 O   0  0  0  0  0  0  0  0  0  0  0  0
  128.6480  117.7800  136.7240 C   0  0  0  0  0  0  0  0  0  0  0  0
  129.4810  116.7490  136.2830 C   0  0  0  0  0  0  0  0  0  0  0  0
  128.9200  115.5250  135.9200 C   0  0  0  0  0  0  0  0  0  0  0  0
  127.5380  115.3420  135.9890 C   0  0  0  0  0  0  0  0  0  0  0  0
  126.7100  116.3820  136.4150 C   0  0  0  0  0  0  0  0  0  0  0  0
  127.2620  117.6090  136.7800 C   0  0  0  0  0  0  0  0  0  0  0  0
  129.7720  119.5510  133.7700 C   0  0  0  0  0  0  0  0  0  0  0  0
  128.8420  118.5850  133.8170 F   0  0  0  0  0  0  0  0  0  0  0  0
  130.2560  117.1520  133.0920 H   0  0  0  0  0  0  0  0  0  0  0  0
  128.0212  116.0495  131.2975 H   0  0  0  0  0  0  0  0  0  0  0  0
  127.9195  113.9827  129.9115 H   0  0  0  0  0  0  0  0  0  0  0  0
  130.0104  112.8884  129.1327 H   0  0  0  0  0  0  0  0  0  0  0  0
  133.0389  112.8170  131.5597 H   0  0  0  0  0  0  0  0  0  0  0  0
  135.1379  111.7272  130.7890 H   0  0  0  0  0  0  0  0  0  0  0  0
  135.8734  111.9654  128.4186 H   0  0  0  0  0  0  0  0  0  0  0  0
  134.5033  113.2979  126.8189 H   0  0  0  0  0  0  0  0  0  0  0  0
  132.4018  114.3915  127.5851 H   0  0  0  0  0  0  0  0  0  0  0  0
  132.3316  115.9274  131.1435 H   0  0  0  0  0  0  0  0  0  0  0  0
  132.4657  122.3308  133.7217 H   0  0  0  0  0  0  0  0  0  0  0  0
  130.8217  122.2375  135.5847 H   0  0  0  0  0  0  0  0  0  0  0  0
  128.6052  121.4424  136.3085 H   0  0  0  0  0  0  0  0  0  0  0  0
  127.8123  120.0617  135.4957 H   0  0  0  0  0  0  0  0  0  0  0  0
  130.5688  116.9011  136.2227 H   0  0  0  0  0  0  0  0  0  0  0  0
  129.5670  114.7033  135.5791 H   0  0  0  0  0  0  0  0  0  0  0  0
  127.0992  114.3737  135.7064 H   0  0  0  0  0  0  0  0  0  0  0  0
  125.6211  116.2332  136.4627 H   0  0  0  0  0  0  0  0  0  0  0  0
  126.6133  118.4343  137.1088 H   0  0  0  0  0  0  0  0  0  0  0  0
  1  2  2  0
  2  3  1  0
  3  4  1  0
  4  5  2  0
  5  6  1  0
  6  7  2  0
  7  8  1  0
  8  9  1  0
  9 10  2  0
 10 11  1  0
 11 12  2  0
 12 13  1  0
 13 14  2  0
  8 15  2  0
  2 16  1  0
 16 17  2  0
 17 18  1  0
 18 19  1  0
 18 20  1  0
 18 21  1  0
 17 22  1  0
 22 23  2  0
 23 24  1  0
 24 25  1  0
 25 26  1  0
 26 27  2  0
 26 28  2  0
 26 29  1  0
 29 30  2  0
 30 31  1  0
 31 32  2  0
 32 33  1  0
 33 34  2  0
 24 35  2  0
 35 36  1  0
 15  4  1  0
 35 16  1  0
 14  9  1  0
 34 29  1  0
  3 37  1  0
  5 38  1  0
  6 39  1  0
  7 40  1  0
 10 41  1  0
 11 42  1  0
 12 43  1  0
 13 44  1  0
 14 45  1  0
 15 46  1  0
 22 47  1  0
 23 48  1  0
 25 49  1  0
 25 50  1  0
 30 51  1  0
 31 52  1  0
 32 53  1  0
 33 54  1  0
 34 55  1  0
M  END
$$$$

     RDKit          3D

 55 58  0  0  0  0  0  0  0  0999 V2000
  132.4690  118.1100  131.2930 O   0  0  0  0  0  0  0  0  0  0  0  0
  131.4610  118.2650  131.9680 C   0  0  0  0  0  0  0  0  0  0  0  0
  130.3440  117.4540  132.0110 N   0  0  0  0  0  0  0  0  0  0  0  0
  130.1130  116.2730  131.2750 C   0  0  0  0  0  0  0  0  0  0  0  0
  128.8480  115.7330  131.0440 C   0  0  0  0  0  0  0  0  0  0  0  0
  128.7080  114.5590  130.3030 C   0  0  0  0  0  0  0  0  0  0  0  0
  129.8330  113.9150  129.7850 C   0  0  0  0  0  0  0  0  0  0  0  0
  131.1180  114.4300  130.0020 C   0  0  0  0  0  0  0  0  0  0  0  0
  132.3080  113.7540  129.4610 C   0  0  0  0  0  0  0  0  0  0  0  0
  132.4860  113.6020  128.0750 C   0  0  0  0  0  0  0  0  0  0  0  0
  133.6150  112.9610  127.5590 C   0  0  0  0  0  0  0  0  0  0  0  0
  134.5880  112.4620  128.4210 C   0  0  0  0  0  0  0  0  0  0  0  0
  134.4320  112.6010  129.7980 C   0  0  0  0  0  0  0  0  0  0  0  0
  133.3010  113.2430  130.3120 C   0  0  0  0  0  0  0  0  0  0  0  0
  131.2370  115.6150  130.7530 C   0  0  0  0  0  0  0  0  0  0  0  0
  131.4070  119.4620  132.8410 C   0  0  0  0  0  0  0  0  0  0  0  0
  131.7920  120.7270  132.3650 C   0  0  0  0  0  0  0  0  0  0  0  0
  132.2250  120.9490  130.9340 C   0  0  0  0  0  0  0  0  0  0  0  0
  133.4920  120.5270  130.6810 F   0  0  0  0  0  0  0  0  0  0  0  0
  131.4050  120.3680  130.0190 F   0  0  0  0  0  0  0  0  0  0  0  0
  132.2240  122.2780  130.6040 F   0  0  0  0  0  0  0  0  0  0  0  0
  131.7540  121.8210  133.2550 C   0  0  0  0  0  0  0  0  0  0  0  0
  131.3280  121.6650  134.5770 C   0  0  0  0  0  0  0  0  0  0  0  0
  130.9410  120.4060  135.0470 C   0  0  0  0  0  0  0  0  0  0  0  0
  130.4280  120.2150  136.4480 C   0  0  0  0  0  0  0  0  0  0  0  0
  128.6370  120.2000  136.3940 S   0  0  0  0  0  6  0  0  0  0  0  0
  128.1940  120.1290  135.0130 O   0  0  0  0  0  0  0  0  0  0  0  0
  128.1410  121.2400  137.2760 O   0  0  0  0  0  0  0  0  0  0  0  0
  128.2460  118.6370  137.1490 C   0  0  0  0  0  0  0  0  0  0  0  0
  128.3620  118.4970  138.5340 C   0  0  0  0  0  0  0  0  0  0  0  0
  128.0560  117.2720  139.1260 C   0  0  0  0  0  0  0  0  0  0  0  0
  127.6490  116.1970  138.3350 C   0  0  0  0  0  0  0  0  0  0  0  0
  127.5510  116.3380  136.9500 C   0  0  0  0  0  0  0  0  0  0  0  0
  127.8540  117.5590  136.3500 C   0  0  0  0  0  0  0  0  0  0  0  0
  130.9970  119.3170  134.1710 C   0  0  0  0  0  0  0  0  0  0  0  0
  130.6400  118.1110  134.6370 F   0  0  0  0  0  0  0  0  0  0  0  0
  129.6090  117.7090  132.6640 H   0  0  0  0  0  0  0  0  0  0  0  0
  127.9565  116.2350  131.4479 H   0  0  0  0  0  0  0  0  0  0  0  0
  127.7068  114.1391  130.1262 H   0  0  0  0  0  0  0  0  0  0  0  0
  129.7093  112.9921  129.1994 H   0  0  0  0  0  0  0  0  0  0  0  0
  131.7239  113.9941  127.3854 H   0  0  0  0  0  0  0  0  0  0  0  0
  133.7353  112.8505  126.4712 H   0  0  0  0  0  0  0  0  0  0  0  0
  135.4781  111.9590  128.0152 H   0  0  0  0  0  0  0  0  0  0  0  0
  135.1983  112.2059  130.4811 H   0  0  0  0  0  0  0  0  0  0  0  0
  133.1874  113.3494  131.4009 H   0  0  0  0  0  0  0  0  0  0  0  0
  132.2369  116.0358  130.9352 H   0  0  0  0  0  0  0  0  0  0  0  0
  132.0654  122.8152  132.9020 H   0  0  0  0  0  0  0  0  0  0  0  0
  131.2971  122.5349  135.2496 H   0  0  0  0  0  0  0  0  0  0  0  0
  130.7960  119.2603  136.8519 H   0  0  0  0  0  0  0  0  0  0  0  0
  130.7809  121.0312  137.0955 H   0  0  0  0  0  0  0  0  0  0  0  0
  128.6917  119.3452  139.1520 H   0  0  0  0  0  0  0  0  0  0  0  0
  128.1355  117.1532  140.2167 H   0  0  0  0  0  0  0  0  0  0  0  0
  127.4041  115.2333  138.8055 H   0  0  0  0  0  0  0  0  0  0  0  0
  127.2345  115.4851  136.3316 H   0  0  0  0  0  0  0  0  0  0  0  0
  127.7853  117.6733  135.2581 H   0  0  0  0  0  0  0  0  0  0  0  0
  1  2  2  0
  2  3  1  0
  3  4  1  0
  4  5  2  0
  5  6  1  0
  6  7  2  0
  7  8  1  0
  8  9  1  0
  9 10  2  0
 10 11  1  0
 11 12  2  0
 12 13  1  0
 13 14  2  0
  8 15  2  0
  2 16  1  0
 16 17  2  0
 17 18  1  0
 18 19  1  0
 18 20  1  0
 18 21  1  0
 17 22  1  0
 22 23  2  0
 23 24  1  0
 24 25  1  0
 25 26  1  0
 26 27  2  0
 26 28  2  0
 26 29  1  0
 29 30  2  0
 30 31  1  0
 31 32  2  0
 32 33  1  0
 33 34  2  0
 24 35  2  0
 35 36  1  0
 15  4  1  0
 35 16  1  0
 14  9  1  0
 34 29  1  0
  3 37  1  0
  5 38  1  0
  6 39  1  0
  7 40  1  0
 10 41  1  0
 11 42  1  0
 12 43  1  0
 13 44  1  0
 14 45  1  0
 15 46  1  0
 22 47  1  0
 23 48  1  0
 25 49  1  0
 25 50  1  0
 30 51  1  0
 31 52  1  0
 32 53  1  0
 33 54  1  0
 34 55  1  0
M  END
$$$$

     RDKit          3D

 55 58  0  0  0  0  0  0  0  0999 V2000
  132.4350  118.1160  131.2750 O   0  0  0  0  0  0  0  0  0  0  0  0
  131.4350  118.2550  131.9650 C   0  0  0  0  0  0  0  0  0  0  0  0
  130.3270  117.4320  132.0180 N   0  0  0  0  0  0  0  0  0  0  0  0
  130.0980  116.2530  131.2760 C   0  0  0  0  0  0  0  0  0  0  0  0
  128.8340  115.7160  131.0380 C   0  0  0  0  0  0  0  0  0  0  0  0
  128.6970  114.5440  130.2920 C   0  0  0  0  0  0  0  0  0  0  0  0
  129.8230  113.9000  129.7780 C   0  0  0  0  0  0  0  0  0  0  0  0
  131.1070  114.4140  130.0030 C   0  0  0  0  0  0  0  0  0  0  0  0
  132.2990  113.7390  129.4640 C   0  0  0  0  0  0  0  0  0  0  0  0
  133.3050  113.2550  130.3180 C   0  0  0  0  0  0  0  0  0  0  0  0
  134.4370  112.6130  129.8090 C   0  0  0  0  0  0  0  0  0  0  0  0
  134.5820  112.4440  128.4340 C   0  0  0  0  0  0  0  0  0  0  0  0
  133.5980  112.9160  127.5690 C   0  0  0  0  0  0  0  0  0  0  0  0
  132.4670  113.5580  128.0820 C   0  0  0  0  0  0  0  0  0  0  0  0
  131.2240  115.5960  130.7580 C   0  0  0  0  0  0  0  0  0  0  0  0
  131.3810  119.4450  132.8470 C   0  0  0  0  0  0  0  0  0  0  0  0
  131.7570  120.7160  132.3780 C   0  0  0  0  0  0  0  0  0  0  0  0
  132.1800  120.9500  130.9470 C   0  0  0  0  0  0  0  0  0  0  0  0
  131.3950  120.3130  130.0390 F   0  0  0  0  0  0  0  0  0  0  0  0
  132.2320  122.2630  130.6000 F   0  0  0  0  0  0  0  0  0  0  0  0
  133.4440  120.4800  130.7090 F   0  0  0  0  0  0  0  0  0  0  0  0
  131.7190  121.8020  133.2770 C   0  0  0  0  0  0  0  0  0  0  0  0
  131.3010  121.6350  134.6000 C   0  0  0  0  0  0  0  0  0  0  0  0
  130.9240  120.3710  135.0630 C   0  0  0  0  0  0  0  0  0  0  0  0
  130.4200  120.1670  136.4660 C   0  0  0  0  0  0  0  0  0  0  0  0
  128.6280  120.1650  136.4260 S   0  0  0  0  0  6  0  0  0  0  0  0
  128.1740  120.1200  135.0480 O   0  0  0  0  0  0  0  0  0  0  0  0
  128.1470  121.1940  137.3290 O   0  0  0  0  0  0  0  0  0  0  0  0
  128.2320  118.5930  137.1580 C   0  0  0  0  0  0  0  0  0  0  0  0
  128.3330  118.4370  138.5430 C   0  0  0  0  0  0  0  0  0  0  0  0
  128.0230  117.2040  139.1170 C   0  0  0  0  0  0  0  0  0  0  0  0
  127.6260  116.1380  138.3080 C   0  0  0  0  0  0  0  0  0  0  0  0
  127.5420  116.2960  136.9240 C   0  0  0  0  0  0  0  0  0  0  0  0
  127.8500  117.5240  136.3420 C   0  0  0  0  0  0  0  0  0  0  0  0
  130.9790  119.2880  134.1780 C   0  0  0  0  0  0  0  0  0  0  0  0
  130.6310  118.0770  134.6380 F   0  0  0  0  0  0  0  0  0  0  0  0
  129.5990  117.6740  132.6830 H   0  0  0  0  0  0  0  0  0  0  0  0
  127.9411  116.2175  131.4394 H   0  0  0  0  0  0  0  0  0  0  0  0
  127.6962  114.1261  130.1085 H   0  0  0  0  0  0  0  0  0  0  0  0
  129.7014  112.9786  129.1896 H   0  0  0  0  0  0  0  0  0  0  0  0
  133.1994  113.3838  131.4053 H   0  0  0  0  0  0  0  0  0  0  0  0
  135.2133  112.2412  130.4939 H   0  0  0  0  0  0  0  0  0  0  0  0
  135.4724  111.9385  128.0320 H   0  0  0  0  0  0  0  0  0  0  0  0
  133.7106  112.7838  126.4828 H   0  0  0  0  0  0  0  0  0  0  0  0
  131.6953  113.9277  127.3908 H   0  0  0  0  0  0  0  0  0  0  0  0
  132.2234  116.0151  130.9466 H   0  0  0  0  0  0  0  0  0  0  0  0
  132.0244  122.8002  132.9300 H   0  0  0  0  0  0  0  0  0  0  0  0
  131.2686  122.5001  135.2786 H   0  0  0  0  0  0  0  0  0  0  0  0
  130.7843  119.2051  136.8559 H   0  0  0  0  0  0  0  0  0  0  0  0
  130.7834  120.9733  137.1201 H   0  0  0  0  0  0  0  0  0  0  0  0
  128.6539  119.2785  139.1746 H   0  0  0  0  0  0  0  0  0  0  0  0
  128.0914  117.0718  140.2069 H   0  0  0  0  0  0  0  0  0  0  0  0
  127.3780  115.1681  138.7639 H   0  0  0  0  0  0  0  0  0  0  0  0
  127.2324  115.4505  136.2921 H   0  0  0  0  0  0  0  0  0  0  0  0
  127.7931  117.6511  135.2508 H   0  0  0  0  0  0  0  0  0  0  0  0
  1  2  2  0
  2  3  1  0
  3  4  1  0
  4  5  2  0
  5  6  1  0
  6  7  2  0
  7  8  1  0
  8  9  1  0
  9 10  2  0
 10 11  1  0
 11 12  2  0
 12 13  1  0
 13 14  2  0
  8 15  2  0
  2 16  1  0
 16 17  2  0
 17 18  1  0
 18 19  1  0
 18 20  1  0
 18 21  1  0
 17 22  1  0
 22 23  2  0
 23 24  1  0
 24 25  1  0
 25 26  1  0
 26 27  2  0
 26 28  2  0
 26 29  1  0
 29 30  2  0
 30 31  1  0
 31 32  2  0
 32 33  1  0
 33 34  2  0
 24 35  2  0
 35 36  1  0
 15  4  1  0
 35 16  1  0
 14  9  1  0
 34 29  1  0
  3 37  1  0
  5 38  1  0
  6 39  1  0
  7 40  1  0
 10 41  1  0
 11 42  1  0
 12 43  1  0
 13 44  1  0
 14 45  1  0
 15 46  1  0
 22 47  1  0
 23 48  1  0
 25 49  1  0
 25 50  1  0
 30 51  1  0
 31 52  1  0
 32 53  1  0
 33 54  1  0
 34 55  1  0
M  END
$$$$

     RDKit          3D

 55 58  0  0  0  0  0  0  0  0999 V2000
  130.8630  119.1390  130.4380 O   0  0  0  0  0  0  0  0  0  0  0  0
  130.7720  118.7450  131.5920 C   0  0  0  0  0  0  0  0  0  0  0  0
  130.7040  117.4390  132.0330 N   0  0  0  0  0  0  0  0  0  0  0  0
  130.7100  116.2670  131.2470 C   0  0  0  0  0  0  0  0  0  0  0  0
  129.5580  115.6000  130.8320 C   0  0  0  0  0  0  0  0  0  0  0  0
  129.6550  114.4450  130.0550 C   0  0  0  0  0  0  0  0  0  0  0  0
  130.9050  113.9470  129.6850 C   0  0  0  0  0  0  0  0  0  0  0  0
  132.0810  114.5930  130.0890 C   0  0  0  0  0  0  0  0  0  0  0  0
  133.4030  114.0720  129.7040 C   0  0  0  0  0  0  0  0  0  0  0  0
  134.5340  114.9070  129.6870 C   0  0  0  0  0  0  0  0  0  0  0  0
  135.7890  114.4140  129.3230 C   0  0  0  0  0  0  0  0  0  0  0  0
  135.9360  113.0750  128.9670 C   0  0  0  0  0  0  0  0  0  0  0  0
  134.8290  112.2300  128.9750 C   0  0  0  0  0  0  0  0  0  0  0  0
  133.5740  112.7260  129.3410 C   0  0  0  0  0  0  0  0  0  0  0  0
  131.9620  115.7550  130.8730 C   0  0  0  0  0  0  0  0  0  0  0  0
  130.7170  119.7760  132.6570 C   0  0  0  0  0  0  0  0  0  0  0  0
  131.6370  120.8370  132.6900 C   0  0  0  0  0  0  0  0  0  0  0  0
  132.6910  121.0190  131.6230 C   0  0  0  0  0  0  0  0  0  0  0  0
  133.6560  121.9140  131.9610 F   0  0  0  0  0  0  0  0  0  0  0  0
  133.3070  119.8630  131.2600 F   0  0  0  0  0  0  0  0  0  0  0  0
  132.1550  121.5040  130.4590 F   0  0  0  0  0  0  0  0  0  0  0  0
  131.5560  121.7640  133.7500 C   0  0  0  0  0  0  0  0  0  0  0  0
  130.5750  121.6510  134.7390 C   0  0  0  0  0  0  0  0  0  0  0  0
  129.6580  120.5970  134.7020 C   0  0  0  0  0  0  0  0  0  0  0  0
  128.5580  120.4760  135.7210 C   0  0  0  0  0  0  0  0  0  0  0  0
  129.1560  119.4650  137.0750 S   0  0  0  0  0  6  0  0  0  0  0  0
  128.4800  119.8470  138.3020 O   0  0  0  0  0  0  0  0  0  0  0  0
  130.6060  119.4240  137.0130 O   0  0  0  0  0  0  0  0  0  0  0  0
  128.5640  117.8470  136.6340 C   0  0  0  0  0  0  0  0  0  0  0  0
  129.4610  116.9020  136.1290 C   0  0  0  0  0  0  0  0  0  0  0  0
  128.9960  115.6340  135.7830 C   0  0  0  0  0  0  0  0  0  0  0  0
  127.6440  115.3210  135.9310 C   0  0  0  0  0  0  0  0  0  0  0  0
  126.7490  116.2750  136.4200 C   0  0  0  0  0  0  0  0  0  0  0  0
  127.2050  117.5450  136.7690 C   0  0  0  0  0  0  0  0  0  0  0  0
  129.7490  119.6650  133.6620 C   0  0  0  0  0  0  0  0  0  0  0  0
  128.8750  118.6470  133.6450 F   0  0  0  0  0  0  0  0  0  0  0  0
  130.6730  117.2870  133.0360 H   0  0  0  0  0  0  0  0  0  0  0  0
  128.5685  115.9859  131.1183 H   0  0  0  0  0  0  0  0  0  0  0  0
  128.7413  113.9243  129.7324 H   0  0  0  0  0  0  0  0  0  0  0  0
  130.9678  113.0375  129.0695 H   0  0  0  0  0  0  0  0  0  0  0  0
  134.4287  115.9661  129.9650 H   0  0  0  0  0  0  0  0  0  0  0  0
  136.6620  115.0833  129.3174 H   0  0  0  0  0  0  0  0  0  0  0  0
  136.9242  112.6861  128.6802 H   0  0  0  0  0  0  0  0  0  0  0  0
  134.9419  111.1727  128.6935 H   0  0  0  0  0  0  0  0  0  0  0  0
  132.7058  112.0506  129.3447 H   0  0  0  0  0  0  0  0  0  0  0  0
  132.8737  116.2756  131.2013 H   0  0  0  0  0  0  0  0  0  0  0  0
  132.2788  122.5917  133.7992 H   0  0  0  0  0  0  0  0  0  0  0  0
  130.5245  122.3937  135.5488 H   0  0  0  0  0  0  0  0  0  0  0  0
  128.2849  121.4741  136.0941 H   0  0  0  0  0  0  0  0  0  0  0  0
  127.6688  120.0145  135.2667 H   0  0  0  0  0  0  0  0  0  0  0  0
  130.5241  117.1562  136.0056 H   0  0  0  0  0  0  0  0  0  0  0  0
  129.6953  114.8797  135.3931 H   0  0  0  0  0  0  0  0  0  0  0  0
  127.2816  114.3181  135.6612 H   0  0  0  0  0  0  0  0  0  0  0  0
  125.6837  116.0240  136.5298 H   0  0  0  0  0  0  0  0  0  0  0  0
  126.5028  118.3026  137.1470 H   0  0  0  0  0  0  0  0  0  0  0  0
  1  2  2  0
  2  3  1  0
  3  4  1  0
  4  5  2  0
  5  6  1  0
  6  7  2  0
  7  8  1  0
  8  9  1  0
  9 10  2  0
 10 11  1  0
 11 12  2  0
 12 13  1  0
 13 14  2  0
  8 15  2  0
  2 16  1  0
 16 17  2  0
 17 18  1  0
 18 19  1  0
 18 20  1  0
 18 21  1  0
 17 22  1  0
 22 23  2  0
 23 24  1  0
 24 25  1  0
 25 26  1  0
 26 27  2  0
 26 28  2  0
 26 29  1  0
 29 30  2  0
 30 31  1  0
 31 32  2  0
 32 33  1  0
 33 34  2  0
 24 35  2  0
 35 36  1  0
 15  4  1  0
 35 16  1  0
 14  9  1  0
 34 29  1  0
  3 37  1  0
  5 38  1  0
  6 39  1  0
  7 40  1  0
 10 41  1  0
 11 42  1  0
 12 43  1  0
 13 44  1  0
 14 45  1  0
 15 46  1  0
 22 47  1  0
 23 48  1  0
 25 49  1  0
 25 50  1  0
 30 51  1  0
 31 52  1  0
 32 53  1  0
 33 54  1  0
 34 55  1  0
M  END
$$$$

     RDKit          3D

 55 58  0  0  0  0  0  0  0  0999 V2000
  132.4570  118.1200  131.2660 O   0  0  0  0  0  0  0  0  0  0  0  0
  131.4580  118.2620  131.9590 C   0  0  0  0  0  0  0  0  0  0  0  0
  130.3520  117.4380  132.0190 N   0  0  0  0  0  0  0  0  0  0  0  0
  130.1210  116.2560  131.2840 C   0  0  0  0  0  0  0  0  0  0  0  0
  128.8570  115.7120  131.0600 C   0  0  0  0  0  0  0  0  0  0  0  0
  128.7180  114.5360  130.3200 C   0  0  0  0  0  0  0  0  0  0  0  0
  129.8420  113.8960  129.7970 C   0  0  0  0  0  0  0  0  0  0  0  0
  131.1270  114.4170  130.0070 C   0  0  0  0  0  0  0  0  0  0  0  0
  132.3160  113.7460  129.4590 C   0  0  0  0  0  0  0  0  0  0  0  0
  133.3110  113.2290  130.3070 C   0  0  0  0  0  0  0  0  0  0  0  0
  134.4410  112.5910  129.7880 C   0  0  0  0  0  0  0  0  0  0  0  0
  134.5950  112.4580  128.4110 C   0  0  0  0  0  0  0  0  0  0  0  0
  133.6230  112.9640  127.5520 C   0  0  0  0  0  0  0  0  0  0  0  0
  132.4930  113.6010  128.0730 C   0  0  0  0  0  0  0  0  0  0  0  0
  131.2450  115.6020  130.7570 C   0  0  0  0  0  0  0  0  0  0  0  0
  131.4060  119.4560  132.8350 C   0  0  0  0  0  0  0  0  0  0  0  0
  131.7890  120.7230  132.3620 C   0  0  0  0  0  0  0  0  0  0  0  0
  132.2170  120.9490  130.9310 C   0  0  0  0  0  0  0  0  0  0  0  0
  132.1930  122.2550  130.5580 F   0  0  0  0  0  0  0  0  0  0  0  0
  133.4540  120.4600  130.6470 F   0  0  0  0  0  0  0  0  0  0  0  0
  131.3850  120.3150  130.0460 F   0  0  0  0  0  0  0  0  0  0  0  0
  131.7520  121.8140  133.2560 C   0  0  0  0  0  0  0  0  0  0  0  0
  131.3300  121.6540  134.5780 C   0  0  0  0  0  0  0  0  0  0  0  0
  130.9460  120.3940  135.0460 C   0  0  0  0  0  0  0  0  0  0  0  0
  130.4370  120.1990  136.4480 C   0  0  0  0  0  0  0  0  0  0  0  0
  128.6460  120.1720  136.3970 S   0  0  0  0  0  6  0  0  0  0  0  0
  128.2000  120.1070  135.0180 O   0  0  0  0  0  0  0  0  0  0  0  0
  128.1450  121.2040  137.2880 O   0  0  0  0  0  0  0  0  0  0  0  0
  128.2660  118.6030  137.1430 C   0  0  0  0  0  0  0  0  0  0  0  0
  127.8710  117.5360  136.3320 C   0  0  0  0  0  0  0  0  0  0  0  0
  127.5730  116.3050  136.9170 C   0  0  0  0  0  0  0  0  0  0  0  0
  127.6590  116.1510  138.3020 C   0  0  0  0  0  0  0  0  0  0  0  0
  128.0390  117.2260  139.1080 C   0  0  0  0  0  0  0  0  0  0  0  0
  128.3390  118.4590  138.5320 C   0  0  0  0  0  0  0  0  0  0  0  0
  131.0000  119.3070  134.1660 C   0  0  0  0  0  0  0  0  0  0  0  0
  130.6450  118.0990  134.6300 F   0  0  0  0  0  0  0  0  0  0  0  0
  129.6250  117.6830  132.6850 H   0  0  0  0  0  0  0  0  0  0  0  0
  127.9657  116.2112  131.4678 H   0  0  0  0  0  0  0  0  0  0  0  0
  127.7175  114.1122  130.1486 H   0  0  0  0  0  0  0  0  0  0  0  0
  129.7188  112.9719  129.2131 H   0  0  0  0  0  0  0  0  0  0  0  0
  133.1983  113.3282  131.3967 H   0  0  0  0  0  0  0  0  0  0  0  0
  135.2090  112.1938  130.4680 H   0  0  0  0  0  0  0  0  0  0  0  0
  135.4831  111.9540  128.0021 H   0  0  0  0  0  0  0  0  0  0  0  0
  133.7443  112.8625  126.4634 H   0  0  0  0  0  0  0  0  0  0  0  0
  131.7296  113.9953  127.3862 H   0  0  0  0  0  0  0  0  0  0  0  0
  132.2441  116.0264  130.9347 H   0  0  0  0  0  0  0  0  0  0  0  0
  132.0614  122.8096  132.9052 H   0  0  0  0  0  0  0  0  0  0  0  0
  131.2998  122.5222  135.2528 H   0  0  0  0  0  0  0  0  0  0  0  0
  130.8121  119.2467  136.8509 H   0  0  0  0  0  0  0  0  0  0  0  0
  130.7856  121.0172  137.0952 H   0  0  0  0  0  0  0  0  0  0  0  0
  127.7957  117.6654  135.2422 H   0  0  0  0  0  0  0  0  0  0  0  0
  127.2702  115.4556  136.2870 H   0  0  0  0  0  0  0  0  0  0  0  0
  127.4263  115.1784  138.7603 H   0  0  0  0  0  0  0  0  0  0  0  0
  128.1016  117.0995  140.1989 H   0  0  0  0  0  0  0  0  0  0  0  0
  128.6305  119.3109  139.1640 H   0  0  0  0  0  0  0  0  0  0  0  0
  1  2  2  0
  2  3  1  0
  3  4  1  0
  4  5  2  0
  5  6  1  0
  6  7  2  0
  7  8  1  0
  8  9  1  0
  9 10  2  0
 10 11  1  0
 11 12  2  0
 12 13  1  0
 13 14  2  0
  8 15  2  0
  2 16  1  0
 16 17  2  0
 17 18  1  0
 18 19  1  0
 18 20  1  0
 18 21  1  0
 17 22  1  0
 22 23  2  0
 23 24  1  0
 24 25  1  0
 25 26  1  0
 26 27  2  0
 26 28  2  0
 26 29  1  0
 29 30  2  0
 30 31  1  0
 31 32  2  0
 32 33  1  0
 33 34  2  0
 24 35  2  0
 35 36  1  0
 15  4  1  0
 35 16  1  0
 14  9  1  0
 34 29  1  0
  3 37  1  0
  5 38  1  0
  6 39  1  0
  7 40  1  0
 10 41  1  0
 11 42  1  0
 12 43  1  0
 13 44  1  0
 14 45  1  0
 15 46  1  0
 22 47  1  0
 23 48  1  0
 25 49  1  0
 25 50  1  0
 30 51  1  0
 31 52  1  0
 32 53  1  0
 33 54  1  0
 34 55  1  0
M  END
$$$$

