
     RDKit          3D

 62 65  0  0  0  0  0  0  0  0999 V2000
  133.8540  112.6880  126.7820 N   0  0  0  0  0  0  0  0  0  0  0  0
  133.4570  112.6230  128.0880 C   0  0  0  0  0  0  0  0  0  0  0  0
  134.2180  112.1940  128.9500 O   0  0  0  0  0  0  0  0  0  0  0  0
  132.0270  113.0380  128.3740 C   0  0  0  0  0  0  0  0  0  0  0  0
  131.9150  114.2520  129.2650 C   0  0  0  0  0  0  0  0  0  0  0  0
  132.8770  115.2630  129.2210 C   0  0  0  0  0  0  0  0  0  0  0  0
  132.7830  116.3730  130.0650 C   0  0  0  0  0  0  0  0  0  0  0  0
  131.7230  116.5020  130.9710 C   0  0  0  0  0  0  0  0  0  0  0  0
  131.6070  117.6150  131.8440 N   0  0  0  0  0  0  0  0  0  0  0  0
  131.1190  118.8700  131.5540 C   0  0  0  0  0  0  0  0  0  0  0  0
  130.7340  119.3050  130.4770 O   0  0  0  0  0  0  0  0  0  0  0  0
  131.0970  119.8020  132.6990 C   0  0  0  0  0  0  0  0  0  0  0  0
  131.8560  120.9820  132.6830 C   0  0  0  0  0  0  0  0  0  0  0  0
  132.7750  121.3170  131.5330 C   0  0  0  0  0  0  0  0  0  0  0  0
  132.1250  121.8370  130.4590 F   0  0  0  0  0  0  0  0  0  0  0  0
  133.7020  122.2620  131.8790 F   0  0  0  0  0  0  0  0  0  0  0  0
  133.5060  120.2590  131.0930 F   0  0  0  0  0  0  0  0  0  0  0  0
  131.7460  121.8620  133.7760 C   0  0  0  0  0  0  0  0  0  0  0  0
  130.9050  121.5730  134.8550 C   0  0  0  0  0  0  0  0  0  0  0  0
  130.1430  120.3980  134.8620 C   0  0  0  0  0  0  0  0  0  0  0  0
  129.2350  120.0660  136.0150 C   0  0  0  0  0  0  0  0  0  0  0  0
  130.0660  118.9020  137.0900 S   0  0  0  0  0  6  0  0  0  0  0  0
  130.2320  119.5150  138.3960 O   0  0  0  0  0  0  0  0  0  0  0  0
  131.2000  118.3230  136.3940 O   0  0  0  0  0  0  0  0  0  0  0  0
  128.8540  117.6120  137.2650 C   0  0  0  0  0  0  0  0  0  0  0  0
  127.5190  117.8800  136.9470 C   0  0  0  0  0  0  0  0  0  0  0  0
  126.5680  116.8680  137.0820 C   0  0  0  0  0  0  0  0  0  0  0  0
  126.9540  115.6000  137.5210 C   0  0  0  0  0  0  0  0  0  0  0  0
  128.2910  115.3360  137.8220 C   0  0  0  0  0  0  0  0  0  0  0  0
  129.2490  116.3400  137.6890 C   0  0  0  0  0  0  0  0  0  0  0  0
  130.2540  119.5220  133.7790 C   0  0  0  0  0  0  0  0  0  0  0  0
  129.5110  118.4040  133.7800 F   0  0  0  0  0  0  0  0  0  0  0  0
  130.7340  115.4900  131.0220 C   0  0  0  0  0  0  0  0  0  0  0  0
  129.5910  115.5430  131.9500 C   0  0  0  0  0  0  0  0  0  0  0  0
  129.7160  115.0950  133.2740 C   0  0  0  0  0  0  0  0  0  0  0  0
  128.6190  115.1080  134.1370 C   0  0  0  0  0  0  0  0  0  0  0  0
  127.3860  115.5820  133.6910 C   0  0  0  0  0  0  0  0  0  0  0  0
  127.2490  116.0430  132.3840 C   0  0  0  0  0  0  0  0  0  0  0  0
  128.3440  116.0240  131.5190 C   0  0  0  0  0  0  0  0  0  0  0  0
  130.8490  114.3770  130.1650 C   0  0  0  0  0  0  0  0  0  0  0  0
  133.3830  113.3080  126.1360 H   0  0  0  0  0  0  0  0  0  0  0  0
  134.8340  112.5040  126.6090 H   0  0  0  0  0  0  0  0  0  0  0  0
  131.5323  113.2622  127.4174 H   0  0  0  0  0  0  0  0  0  0  0  0
  131.5497  112.2024  128.9069 H   0  0  0  0  0  0  0  0  0  0  0  0
  133.7171  115.1851  128.5151 H   0  0  0  0  0  0  0  0  0  0  0  0
  133.5531  117.1570  130.0169 H   0  0  0  0  0  0  0  0  0  0  0  0
  131.9390  117.4590  132.7900 H   0  0  0  0  0  0  0  0  0  0  0  0
  132.3317  122.7931  133.7814 H   0  0  0  0  0  0  0  0  0  0  0  0
  130.8416  122.2717  135.7022 H   0  0  0  0  0  0  0  0  0  0  0  0
  128.9992  120.9828  136.5753 H   0  0  0  0  0  0  0  0  0  0  0  0
  128.3006  119.6243  135.6385 H   0  0  0  0  0  0  0  0  0  0  0  0
  127.2216  118.8785  136.5940 H   0  0  0  0  0  0  0  0  0  0  0  0
  125.5134  117.0692  136.8424 H   0  0  0  0  0  0  0  0  0  0  0  0
  126.2010  114.8056  137.6301 H   0  0  0  0  0  0  0  0  0  0  0  0
  128.5893  114.3342  138.1647 H   0  0  0  0  0  0  0  0  0  0  0  0
  130.3054  116.1332  137.9155 H   0  0  0  0  0  0  0  0  0  0  0  0
  130.6886  114.7298  133.6355 H   0  0  0  0  0  0  0  0  0  0  0  0
  128.7273  114.7441  135.1694 H   0  0  0  0  0  0  0  0  0  0  0  0
  126.5216  115.5918  134.3713 H   0  0  0  0  0  0  0  0  0  0  0  0
  126.2777  116.4221  132.0335 H   0  0  0  0  0  0  0  0  0  0  0  0
  128.2290  116.3899  130.4880 H   0  0  0  0  0  0  0  0  0  0  0  0
  130.0836  113.5879  130.2038 H   0  0  0  0  0  0  0  0  0  0  0  0
  1  2  1  0
  2  3  2  0
  2  4  1  0
  4  5  1  0
  5  6  2  0
  6  7  1  0
  7  8  2  0
  8  9  1  0
  9 10  1  0
 10 11  2  0
 10 12  1  0
 12 13  2  0
 13 14  1  0
 14 15  1  0
 14 16  1  0
 14 17  1  0
 13 18  1  0
 18 19  2  0
 19 20  1  0
 20 21  1  0
 21 22  1  0
 22 23  2  0
 22 24  2  0
 22 25  1  0
 25 26  2  0
 26 27  1  0
 27 28  2  0
 28 29  1  0
 29 30  2  0
 20 31  2  0
 31 32  1  0
  8 33  1  0
 33 34  1  0
 34 35  2  0
 35 36  1  0
 36 37  2  0
 37 38  1  0
 38 39  2  0
 33 40  2  0
 40  5  1  0
 31 12  1  0
 39 34  1  0
 30 25  1  0
  1 41  1  0
  1 42  1  0
  4 43  1  0
  4 44  1  0
  6 45  1  0
  7 46  1  0
  9 47  1  0
 18 48  1  0
 19 49  1  0
 21 50  1  0
 21 51  1  0
 26 52  1  0
 27 53  1  0
 28 54  1  0
 29 55  1  0
 30 56  1  0
 35 57  1  0
 36 58  1  0
 37 59  1  0
 38 60  1  0
 39 61  1  0
 40 62  1  0
M  END
$$$$

     RDKit          3D

 62 65  0  0  0  0  0  0  0  0999 V2000
  134.8200  112.2620  129.4230 N   0  0  0  0  0  0  0  0  0  0  0  0
  134.3980  112.6030  128.1690 C   0  0  0  0  0  0  0  0  0  0  0  0
  135.1700  112.5550  127.2170 O   0  0  0  0  0  0  0  0  0  0  0  0
  132.9690  113.1000  128.0560 C   0  0  0  0  0  0  0  0  0  0  0  0
  132.6660  114.2780  128.9510 C   0  0  0  0  0  0  0  0  0  0  0  0
  133.5290  115.3740  129.0090 C   0  0  0  0  0  0  0  0  0  0  0  0
  133.2560  116.4510  129.8580 C   0  0  0  0  0  0  0  0  0  0  0  0
  132.1140  116.4600  130.6670 C   0  0  0  0  0  0  0  0  0  0  0  0
  131.8170  117.5360  131.5430 N   0  0  0  0  0  0  0  0  0  0  0  0
  131.2740  118.7610  131.2250 C   0  0  0  0  0  0  0  0  0  0  0  0
  130.9840  119.1980  130.1190 O   0  0  0  0  0  0  0  0  0  0  0  0
  131.0530  119.6560  132.3780 C   0  0  0  0  0  0  0  0  0  0  0  0
  131.7000  120.8990  132.4610 C   0  0  0  0  0  0  0  0  0  0  0  0
  132.6940  121.3460  131.4160 C   0  0  0  0  0  0  0  0  0  0  0  0
  132.1100  121.8700  130.3070 F   0  0  0  0  0  0  0  0  0  0  0  0
  133.5170  122.3330  131.8840 F   0  0  0  0  0  0  0  0  0  0  0  0
  133.5340  120.3590  131.0050 F   0  0  0  0  0  0  0  0  0  0  0  0
  131.4010  121.7360  133.5520 C   0  0  0  0  0  0  0  0  0  0  0  0
  130.4860  121.3430  134.5340 C   0  0  0  0  0  0  0  0  0  0  0  0
  129.8380  120.1060  134.4430 C   0  0  0  0  0  0  0  0  0  0  0  0
  128.8540  119.6620  135.4920 C   0  0  0  0  0  0  0  0  0  0  0  0
  129.7550  118.9890  136.8830 S   0  0  0  0  0  6  0  0  0  0  0  0
  129.7500  119.9670  137.9560 O   0  0  0  0  0  0  0  0  0  0  0  0
  130.9990  118.4040  136.4190 O   0  0  0  0  0  0  0  0  0  0  0  0
  128.7120  117.6420  137.3960 C   0  0  0  0  0  0  0  0  0  0  0  0
  128.5650  116.5330  136.5580 C   0  0  0  0  0  0  0  0  0  0  0  0
  127.7480  115.4750  136.9600 C   0  0  0  0  0  0  0  0  0  0  0  0
  127.0960  115.5260  138.1940 C   0  0  0  0  0  0  0  0  0  0  0  0
  127.2600  116.6300  139.0320 C   0  0  0  0  0  0  0  0  0  0  0  0
  128.0740  117.6920  138.6390 C   0  0  0  0  0  0  0  0  0  0  0  0
  130.1360  119.2720  133.3610 C   0  0  0  0  0  0  0  0  0  0  0  0
  129.5030  118.0930  133.2670 F   0  0  0  0  0  0  0  0  0  0  0  0
  131.2240  115.3590  130.6140 C   0  0  0  0  0  0  0  0  0  0  0  0
  130.0040  115.2840  131.4370 C   0  0  0  0  0  0  0  0  0  0  0  0
  128.8040  115.8690  131.0020 C   0  0  0  0  0  0  0  0  0  0  0  0
  127.6630  115.8330  131.8040 C   0  0  0  0  0  0  0  0  0  0  0  0
  127.7010  115.2000  133.0450 C   0  0  0  0  0  0  0  0  0  0  0  0
  128.8800  114.6020  133.4850 C   0  0  0  0  0  0  0  0  0  0  0  0
  130.0240  114.6440  132.6860 C   0  0  0  0  0  0  0  0  0  0  0  0
  131.5190  114.2820  129.7540 C   0  0  0  0  0  0  0  0  0  0  0  0
  134.1490  111.9970  130.1330 H   0  0  0  0  0  0  0  0  0  0  0  0
  135.7380  111.8400  129.4800 H   0  0  0  0  0  0  0  0  0  0  0  0
  132.7864  113.3994  127.0134 H   0  0  0  0  0  0  0  0  0  0  0  0
  132.3145  112.2755  128.3753 H   0  0  0  0  0  0  0  0  0  0  0  0
  134.4320  115.3904  128.3810 H   0  0  0  0  0  0  0  0  0  0  0  0
  133.9495  117.3043  129.8905 H   0  0  0  0  0  0  0  0  0  0  0  0
  132.0500  117.3770  132.5190 H   0  0  0  0  0  0  0  0  0  0  0  0
  131.8950  122.7154  133.6338 H   0  0  0  0  0  0  0  0  0  0  0  0
  130.2745  122.0100  135.3827 H   0  0  0  0  0  0  0  0  0  0  0  0
  128.2532  120.5221  135.8224 H   0  0  0  0  0  0  0  0  0  0  0  0
  128.1849  118.8950  135.0748 H   0  0  0  0  0  0  0  0  0  0  0  0
  129.0881  116.4944  135.5911 H   0  0  0  0  0  0  0  0  0  0  0  0
  127.6177  114.6011  136.3048 H   0  0  0  0  0  0  0  0  0  0  0  0
  126.4503  114.6923  138.5069 H   0  0  0  0  0  0  0  0  0  0  0  0
  126.7463  116.6625  140.0041 H   0  0  0  0  0  0  0  0  0  0  0  0
  128.2127  118.5601  139.3002 H   0  0  0  0  0  0  0  0  0  0  0  0
  128.7631  116.3607  130.0189 H   0  0  0  0  0  0  0  0  0  0  0  0
  126.7322  116.3049  131.4564 H   0  0  0  0  0  0  0  0  0  0  0  0
  126.8009  115.1725  133.6767 H   0  0  0  0  0  0  0  0  0  0  0  0
  128.9094  114.0969  134.4617 H   0  0  0  0  0  0  0  0  0  0  0  0
  130.9517  114.1701  133.0393 H   0  0  0  0  0  0  0  0  0  0  0  0
  130.8317  113.4241  129.7127 H   0  0  0  0  0  0  0  0  0  0  0  0
  1  2  1  0
  2  3  2  0
  2  4  1  0
  4  5  1  0
  5  6  2  0
  6  7  1  0
  7  8  2  0
  8  9  1  0
  9 10  1  0
 10 11  2  0
 10 12  1  0
 12 13  2  0
 13 14  1  0
 14 15  1  0
 14 16  1  0
 14 17  1  0
 13 18  1  0
 18 19  2  0
 19 20  1  0
 20 21  1  0
 21 22  1  0
 22 23  2  0
 22 24  2  0
 22 25  1  0
 25 26  2  0
 26 27  1  0
 27 28  2  0
 28 29  1  0
 29 30  2  0
 20 31  2  0
 31 32  1  0
  8 33  1  0
 33 34  1  0
 34 35  2  0
 35 36  1  0
 36 37  2  0
 37 38  1  0
 38 39  2  0
 33 40  2  0
 40  5  1  0
 31 12  1  0
 39 34  1  0
 30 25  1  0
  1 41  1  0
  1 42  1  0
  4 43  1  0
  4 44  1  0
  6 45  1  0
  7 46  1  0
  9 47  1  0
 18 48  1  0
 19 49  1  0
 21 50  1  0
 21 51  1  0
 26 52  1  0
 27 53  1  0
 28 54  1  0
 29 55  1  0
 30 56  1  0
 35 57  1  0
 36 58  1  0
 37 59  1  0
 38 60  1  0
 39 61  1  0
 40 62  1  0
M  END
$$$$

     RDKit          3D

 62 65  0  0  0  0  0  0  0  0999 V2000
  134.8520  112.2880  129.4460 N   0  0  0  0  0  0  0  0  0  0  0  0
  134.4680  112.6320  128.1810 C   0  0  0  0  0  0  0  0  0  0  0  0
  135.2720  112.6000  127.2550 O   0  0  0  0  0  0  0  0  0  0  0  0
  133.0380  113.1140  128.0230 C   0  0  0  0  0  0  0  0  0  0  0  0
  132.6880  114.2750  128.9230 C   0  0  0  0  0  0  0  0  0  0  0  0
  133.5080  115.4030  128.9870 C   0  0  0  0  0  0  0  0  0  0  0  0
  133.1920  116.4650  129.8410 C   0  0  0  0  0  0  0  0  0  0  0  0
  132.0490  116.4260  130.6470 C   0  0  0  0  0  0  0  0  0  0  0  0
  131.7090  117.4860  131.5280 N   0  0  0  0  0  0  0  0  0  0  0  0
  131.2060  118.7260  131.2030 C   0  0  0  0  0  0  0  0  0  0  0  0
  130.9960  119.1940  130.0920 O   0  0  0  0  0  0  0  0  0  0  0  0
  130.9210  119.5980  132.3610 C   0  0  0  0  0  0  0  0  0  0  0  0
  131.6120  120.8060  132.5420 C   0  0  0  0  0  0  0  0  0  0  0  0
  132.7160  121.2350  131.6070 C   0  0  0  0  0  0  0  0  0  0  0  0
  133.4890  120.2030  131.1790 F   0  0  0  0  0  0  0  0  0  0  0  0
  132.2260  121.8090  130.4670 F   0  0  0  0  0  0  0  0  0  0  0  0
  133.5470  122.1710  132.1370 F   0  0  0  0  0  0  0  0  0  0  0  0
  131.2530  121.6240  133.6290 C   0  0  0  0  0  0  0  0  0  0  0  0
  130.2350  121.2480  134.5120 C   0  0  0  0  0  0  0  0  0  0  0  0
  129.5430  120.0460  134.3220 C   0  0  0  0  0  0  0  0  0  0  0  0
  128.4480  119.6200  135.2630 C   0  0  0  0  0  0  0  0  0  0  0  0
  129.1800  119.1390  136.8230 S   0  0  0  0  0  6  0  0  0  0  0  0
  128.9420  120.1950  137.7910 O   0  0  0  0  0  0  0  0  0  0  0  0
  130.5200  118.6310  136.5950 O   0  0  0  0  0  0  0  0  0  0  0  0
  128.1760  117.7510  137.3020 C   0  0  0  0  0  0  0  0  0  0  0  0
  127.6760  116.8950  136.3160 C   0  0  0  0  0  0  0  0  0  0  0  0
  126.8900  115.8050  136.6910 C   0  0  0  0  0  0  0  0  0  0  0  0
  126.6190  115.5710  138.0410 C   0  0  0  0  0  0  0  0  0  0  0  0
  127.1340  116.4210  139.0210 C   0  0  0  0  0  0  0  0  0  0  0  0
  127.9210  117.5130  138.6560 C   0  0  0  0  0  0  0  0  0  0  0  0
  129.9010  119.2300  133.2450 C   0  0  0  0  0  0  0  0  0  0  0  0
  129.2270  118.0860  133.0550 F   0  0  0  0  0  0  0  0  0  0  0  0
  131.2020  115.2920  130.5880 C   0  0  0  0  0  0  0  0  0  0  0  0
  129.9850  115.1660  131.4080 C   0  0  0  0  0  0  0  0  0  0  0  0
  130.0290  114.5720  132.6790 C   0  0  0  0  0  0  0  0  0  0  0  0
  128.8650  114.4170  133.4330 C   0  0  0  0  0  0  0  0  0  0  0  0
  127.6440  114.8660  132.9340 C   0  0  0  0  0  0  0  0  0  0  0  0
  127.5860  115.4720  131.6810 C   0  0  0  0  0  0  0  0  0  0  0  0
  128.7480  115.6200  130.9220 C   0  0  0  0  0  0  0  0  0  0  0  0
  131.5400  114.2310  129.7230 C   0  0  0  0  0  0  0  0  0  0  0  0
  134.1610  112.0100  130.1320 H   0  0  0  0  0  0  0  0  0  0  0  0
  135.7720  111.8770  129.5310 H   0  0  0  0  0  0  0  0  0  0  0  0
  132.8898  113.4266  126.9788 H   0  0  0  0  0  0  0  0  0  0  0  0
  132.3826  112.2773  128.3065 H   0  0  0  0  0  0  0  0  0  0  0  0
  134.4105  115.4572  128.3604 H   0  0  0  0  0  0  0  0  0  0  0  0
  133.8522  117.3440  129.8794 H   0  0  0  0  0  0  0  0  0  0  0  0
  131.8740  117.3010  132.5120 H   0  0  0  0  0  0  0  0  0  0  0  0
  131.7818  122.5755  133.7873 H   0  0  0  0  0  0  0  0  0  0  0  0
  129.9771  121.9000  135.3596 H   0  0  0  0  0  0  0  0  0  0  0  0
  127.7527  120.4571  135.4238 H   0  0  0  0  0  0  0  0  0  0  0  0
  127.8957  118.7715  134.8328 H   0  0  0  0  0  0  0  0  0  0  0  0
  127.9002  117.0791  135.2549 H   0  0  0  0  0  0  0  0  0  0  0  0
  126.4837  115.1299  135.9234 H   0  0  0  0  0  0  0  0  0  0  0  0
  125.9965  114.7125  138.3334 H   0  0  0  0  0  0  0  0  0  0  0  0
  126.9189  116.2293  140.0826 H   0  0  0  0  0  0  0  0  0  0  0  0
  128.3368  118.1802  139.4254 H   0  0  0  0  0  0  0  0  0  0  0  0
  130.9908  114.2251  133.0848 H   0  0  0  0  0  0  0  0  0  0  0  0
  128.9115  113.9396  134.4229 H   0  0  0  0  0  0  0  0  0  0  0  0
  126.7270  114.7421  133.5288 H   0  0  0  0  0  0  0  0  0  0  0  0
  126.6239  115.8341  131.2895 H   0  0  0  0  0  0  0  0  0  0  0  0
  128.6943  116.0974  129.9324 H   0  0  0  0  0  0  0  0  0  0  0  0
  130.8861  113.3477  129.6757 H   0  0  0  0  0  0  0  0  0  0  0  0
  1  2  1  0
  2  3  2  0
  2  4  1  0
  4  5  1  0
  5  6  2  0
  6  7  1  0
  7  8  2  0
  8  9  1  0
  9 10  1  0
 10 11  2  0
 10 12  1  0
 12 13  2  0
 13 14  1  0
 14 15  1  0
 14 16  1  0
 14 17  1  0
 13 18  1  0
 18 19  2  0
 19 20  1  0
 20 21  1  0
 21 22  1  0
 22 23  2  0
 22 24  2  0
 22 25  1  0
 25 26  2  0
 26 27  1  0
 27 28  2  0
 28 29  1  0
 29 30  2  0
 20 31  2  0
 31 32  1  0
  8 33  1  0
 33 34  1  0
 34 35  2  0
 35 36  1  0
 36 37  2  0
 37 38  1  0
 38 39  2  0
 33 40  2  0
 40  5  1  0
 31 12  1  0
 39 34  1  0
 30 25  1  0
  1 41  1  0
  1 42  1  0
  4 43  1  0
  4 44  1  0
  6 45  1  0
  7 46  1  0
  9 47  1  0
 18 48  1  0
 19 49  1  0
 21 50  1  0
 21 51  1  0
 26 52  1  0
 27 53  1  0
 28 54  1  0
 29 55  1  0
 30 56  1  0
 35 57  1  0
 36 58  1  0
 37 59  1  0
 38 60  1  0
 39 61  1  0
 40 62  1  0
M  END
$$$$

     RDKit          3D

 62 65  0  0  0  0  0  0  0  0999 V2000
  134.7920  112.2620  129.4140 N   0  0  0  0  0  0  0  0  0  0  0  0
  134.3650  112.6060  128.1620 C   0  0  0  0  0  0  0  0  0  0  0  0
  135.1330  112.5630  127.2070 O   0  0  0  0  0  0  0  0  0  0  0  0
  132.9350  113.1030  128.0570 C   0  0  0  0  0  0  0  0  0  0  0  0
  132.6370  114.2830  128.9510 C   0  0  0  0  0  0  0  0  0  0  0  0
  133.4930  115.3850  128.9910 C   0  0  0  0  0  0  0  0  0  0  0  0
  133.2250  116.4640  129.8390 C   0  0  0  0  0  0  0  0  0  0  0  0
  132.0950  116.4690  130.6650 C   0  0  0  0  0  0  0  0  0  0  0  0
  131.8030  117.5470  131.5410 N   0  0  0  0  0  0  0  0  0  0  0  0
  131.2630  118.7730  131.2220 C   0  0  0  0  0  0  0  0  0  0  0  0
  130.9710  119.2100  130.1170 O   0  0  0  0  0  0  0  0  0  0  0  0
  131.0480  119.6700  132.3750 C   0  0  0  0  0  0  0  0  0  0  0  0
  131.6930  120.9140  132.4510 C   0  0  0  0  0  0  0  0  0  0  0  0
  132.6810  121.3600  131.4000 C   0  0  0  0  0  0  0  0  0  0  0  0
  133.4950  122.3640  131.8180 F   0  0  0  0  0  0  0  0  0  0  0  0
  133.5240  120.3490  131.0310 F   0  0  0  0  0  0  0  0  0  0  0  0
  132.0980  121.7660  130.2410 F   0  0  0  0  0  0  0  0  0  0  0  0
  131.4000  121.7530  133.5430 C   0  0  0  0  0  0  0  0  0  0  0  0
  130.4910  121.3610  134.5310 C   0  0  0  0  0  0  0  0  0  0  0  0
  129.8440  120.1230  134.4460 C   0  0  0  0  0  0  0  0  0  0  0  0
  128.8660  119.6800  135.5010 C   0  0  0  0  0  0  0  0  0  0  0  0
  129.7740  118.9670  136.8680 S   0  0  0  0  0  6  0  0  0  0  0  0
  129.7590  119.9080  137.9750 O   0  0  0  0  0  0  0  0  0  0  0  0
  131.0240  118.4120  136.3850 O   0  0  0  0  0  0  0  0  0  0  0  0
  128.7440  117.5930  137.3330 C   0  0  0  0  0  0  0  0  0  0  0  0
  128.0360  117.6460  138.5380 C   0  0  0  0  0  0  0  0  0  0  0  0
  127.2270  116.5690  138.9020 C   0  0  0  0  0  0  0  0  0  0  0  0
  127.1220  115.4580  138.0630 C   0  0  0  0  0  0  0  0  0  0  0  0
  127.8200  115.4200  136.8550 C   0  0  0  0  0  0  0  0  0  0  0  0
  128.6310  116.4910  136.4810 C   0  0  0  0  0  0  0  0  0  0  0  0
  130.1370  119.2870  133.3640 C   0  0  0  0  0  0  0  0  0  0  0  0
  129.5040  118.1080  133.2760 F   0  0  0  0  0  0  0  0  0  0  0  0
  131.2120  115.3610  130.6310 C   0  0  0  0  0  0  0  0  0  0  0  0
  130.0050  115.2820  131.4720 C   0  0  0  0  0  0  0  0  0  0  0  0
  130.0230  114.5930  132.6950 C   0  0  0  0  0  0  0  0  0  0  0  0
  128.8660  114.4840  133.4680 C   0  0  0  0  0  0  0  0  0  0  0  0
  127.6800  115.0740  133.0350 C   0  0  0  0  0  0  0  0  0  0  0  0
  127.6490  115.7730  131.8310 C   0  0  0  0  0  0  0  0  0  0  0  0
  128.8040  115.8760  131.0540 C   0  0  0  0  0  0  0  0  0  0  0  0
  131.5020  114.2830  129.7710 C   0  0  0  0  0  0  0  0  0  0  0  0
  134.1240  111.9930  130.1260 H   0  0  0  0  0  0  0  0  0  0  0  0
  135.7110  111.8400  129.4650 H   0  0  0  0  0  0  0  0  0  0  0  0
  132.7459  113.3999  127.0149 H   0  0  0  0  0  0  0  0  0  0  0  0
  132.2829  112.2792  128.3827 H   0  0  0  0  0  0  0  0  0  0  0  0
  134.3864  115.4047  128.3496 H   0  0  0  0  0  0  0  0  0  0  0  0
  133.9129  117.3222  129.8573 H   0  0  0  0  0  0  0  0  0  0  0  0
  132.0380  117.3890  132.5160 H   0  0  0  0  0  0  0  0  0  0  0  0
  131.8940  122.7328  133.6204 H   0  0  0  0  0  0  0  0  0  0  0  0
  130.2835  122.0295  135.3796 H   0  0  0  0  0  0  0  0  0  0  0  0
  128.2861  120.5455  135.8540 H   0  0  0  0  0  0  0  0  0  0  0  0
  128.1766  118.9330  135.0808 H   0  0  0  0  0  0  0  0  0  0  0  0
  128.1161  118.5271  139.1916 H   0  0  0  0  0  0  0  0  0  0  0  0
  126.6714  116.5953  139.8510 H   0  0  0  0  0  0  0  0  0  0  0  0
  126.4865  114.6091  138.3553 H   0  0  0  0  0  0  0  0  0  0  0  0
  127.7302  114.5434  136.1966 H   0  0  0  0  0  0  0  0  0  0  0  0
  129.1759  116.4687  135.5257 H   0  0  0  0  0  0  0  0  0  0  0  0
  130.9585  114.1343  133.0477 H   0  0  0  0  0  0  0  0  0  0  0  0
  128.8903  113.9322  134.4193 H   0  0  0  0  0  0  0  0  0  0  0  0
  126.7683  114.9875  133.6443 H   0  0  0  0  0  0  0  0  0  0  0  0
  126.7144  116.2439  131.4923 H   0  0  0  0  0  0  0  0  0  0  0  0
  128.7726  116.4288  130.1035 H   0  0  0  0  0  0  0  0  0  0  0  0
  130.8200  113.4204  129.7432 H   0  0  0  0  0  0  0  0  0  0  0  0
  1  2  1  0
  2  3  2  0
  2  4  1  0
  4  5  1  0
  5  6  2  0
  6  7  1  0
  7  8  2  0
  8  9  1  0
  9 10  1  0
 10 11  2  0
 10 12  1  0
 12 13  2  0
 13 14  1  0
 14 15  1  0
 14 16  1  0
 14 17  1  0
 13 18  1  0
 18 19  2  0
 19 20  1  0
 20 21  1  0
 21 22  1  0
 22 23  2  0
 22 24  2  0
 22 25  1  0
 25 26  2  0
 26 27  1  0
 27 28  2  0
 28 29  1  0
 29 30  2  0
 20 31  2  0
 31 32  1  0
  8 33  1  0
 33 34  1  0
 34 35  2  0
 35 36  1  0
 36 37  2  0
 37 38  1  0
 38 39  2  0
 33 40  2  0
 40  5  1  0
 31 12  1  0
 39 34  1  0
 30 25  1  0
  1 41  1  0
  1 42  1  0
  4 43  1  0
  4 44  1  0
  6 45  1  0
  7 46  1  0
  9 47  1  0
 18 48  1  0
 19 49  1  0
 21 50  1  0
 21 51  1  0
 26 52  1  0
 27 53  1  0
 28 54  1  0
 29 55  1  0
 30 56  1  0
 35 57  1  0
 36 58  1  0
 37 59  1  0
 38 60  1  0
 39 61  1  0
 40 62  1  0
M  END
$$$$

     RDKit          3D

 62 65  0  0  0  0  0  0  0  0999 V2000
  134.8160  112.5440  127.8030 N   0  0  0  0  0  0  0  0  0  0  0  0
  133.6250  113.0390  127.3540 C   0  0  0  0  0  0  0  0  0  0  0  0
  133.5570  113.6150  126.2720 O   0  0  0  0  0  0  0  0  0  0  0  0
  132.4430  112.8950  128.2940 C   0  0  0  0  0  0  0  0  0  0  0  0
  132.2200  114.1020  129.1740 C   0  0  0  0  0  0  0  0  0  0  0  0
  133.1540  115.1380  129.2180 C   0  0  0  0  0  0  0  0  0  0  0  0
  132.9550  116.2410  130.0540 C   0  0  0  0  0  0  0  0  0  0  0  0
  131.8170  116.3360  130.8630 C   0  0  0  0  0  0  0  0  0  0  0  0
  131.5940  117.4410  131.7260 N   0  0  0  0  0  0  0  0  0  0  0  0
  131.1350  118.6950  131.3920 C   0  0  0  0  0  0  0  0  0  0  0  0
  130.8750  119.1380  130.2820 O   0  0  0  0  0  0  0  0  0  0  0  0
  130.9750  119.6180  132.5350 C   0  0  0  0  0  0  0  0  0  0  0  0
  131.6950  120.8210  132.5970 C   0  0  0  0  0  0  0  0  0  0  0  0
  132.7060  121.1940  131.5400 C   0  0  0  0  0  0  0  0  0  0  0  0
  133.4420  120.1390  131.1030 F   0  0  0  0  0  0  0  0  0  0  0  0
  132.1100  121.7010  130.4190 F   0  0  0  0  0  0  0  0  0  0  0  0
  133.5770  122.1600  131.9360 F   0  0  0  0  0  0  0  0  0  0  0  0
  131.4540  121.6880  133.6780 C   0  0  0  0  0  0  0  0  0  0  0  0
  130.5240  121.3640  134.6710 C   0  0  0  0  0  0  0  0  0  0  0  0
  129.8030  120.1660  134.6010 C   0  0  0  0  0  0  0  0  0  0  0  0
  128.8010  119.7960  135.6610 C   0  0  0  0  0  0  0  0  0  0  0  0
  129.6360  118.8780  136.9510 S   0  0  0  0  0  6  0  0  0  0  0  0
  129.8770  119.7700  138.0710 O   0  0  0  0  0  0  0  0  0  0  0  0
  130.7190  118.1050  136.3730 O   0  0  0  0  0  0  0  0  0  0  0  0
  128.3880  117.7180  137.4610 C   0  0  0  0  0  0  0  0  0  0  0  0
  128.1560  117.5190  138.8260 C   0  0  0  0  0  0  0  0  0  0  0  0
  127.1770  116.6100  139.2280 C   0  0  0  0  0  0  0  0  0  0  0  0
  126.4310  115.9180  138.2710 C   0  0  0  0  0  0  0  0  0  0  0  0
  126.6570  116.1340  136.9100 C   0  0  0  0  0  0  0  0  0  0  0  0
  127.6340  117.0400  136.4990 C   0  0  0  0  0  0  0  0  0  0  0  0
  130.0440  119.3020  133.5290 C   0  0  0  0  0  0  0  0  0  0  0  0
  129.3410  118.1620  133.4540 F   0  0  0  0  0  0  0  0  0  0  0  0
  130.8560  115.2960  130.8250 C   0  0  0  0  0  0  0  0  0  0  0  0
  129.6340  115.3140  131.6490 C   0  0  0  0  0  0  0  0  0  0  0  0
  128.4530  115.9050  131.1740 C   0  0  0  0  0  0  0  0  0  0  0  0
  127.3110  115.9560  131.9750 C   0  0  0  0  0  0  0  0  0  0  0  0
  127.3310  115.4060  133.2560 C   0  0  0  0  0  0  0  0  0  0  0  0
  128.4920  114.8030  133.7360 C   0  0  0  0  0  0  0  0  0  0  0  0
  129.6360  114.7580  132.9380 C   0  0  0  0  0  0  0  0  0  0  0  0
  131.0770  114.1920  129.9780 C   0  0  0  0  0  0  0  0  0  0  0  0
  134.8340  111.8180  128.5080 H   0  0  0  0  0  0  0  0  0  0  0  0
  135.5780  112.5540  127.1370 H   0  0  0  0  0  0  0  0  0  0  0  0
  131.5373  112.7318  127.6914 H   0  0  0  0  0  0  0  0  0  0  0  0
  132.6613  112.0466  128.9592 H   0  0  0  0  0  0  0  0  0  0  0  0
  134.0551  115.0864  128.5892 H   0  0  0  0  0  0  0  0  0  0  0  0
  133.7042  117.0461  130.0761 H   0  0  0  0  0  0  0  0  0  0  0  0
  131.8150  117.2780  132.7030 H   0  0  0  0  0  0  0  0  0  0  0  0
  132.0064  122.6370  133.7435 H   0  0  0  0  0  0  0  0  0  0  0  0
  130.3582  122.0541  135.5114 H   0  0  0  0  0  0  0  0  0  0  0  0
  128.3576  120.7090  136.0851 H   0  0  0  0  0  0  0  0  0  0  0  0
  128.0029  119.1798  135.2213 H   0  0  0  0  0  0  0  0  0  0  0  0
  128.7398  118.0738  139.5752 H   0  0  0  0  0  0  0  0  0  0  0  0
  126.9925  116.4382  140.2987 H   0  0  0  0  0  0  0  0  0  0  0  0
  125.6619  115.1996  138.5910 H   0  0  0  0  0  0  0  0  0  0  0  0
  126.0636  115.5888  136.1613 H   0  0  0  0  0  0  0  0  0  0  0  0
  127.8097  117.2194  135.4280 H   0  0  0  0  0  0  0  0  0  0  0  0
  128.4271  116.3322  130.1607 H   0  0  0  0  0  0  0  0  0  0  0  0
  126.3943  116.4307  131.5952 H   0  0  0  0  0  0  0  0  0  0  0  0
  126.4311  115.4480  133.8872 H   0  0  0  0  0  0  0  0  0  0  0  0
  128.5067  114.3625  134.7438 H   0  0  0  0  0  0  0  0  0  0  0  0
  130.5495  114.2815  133.3234 H   0  0  0  0  0  0  0  0  0  0  0  0
  130.3340  113.3815  129.9475 H   0  0  0  0  0  0  0  0  0  0  0  0
  1  2  1  0
  2  3  2  0
  2  4  1  0
  4  5  1  0
  5  6  2  0
  6  7  1  0
  7  8  2  0
  8  9  1  0
  9 10  1  0
 10 11  2  0
 10 12  1  0
 12 13  2  0
 13 14  1  0
 14 15  1  0
 14 16  1  0
 14 17  1  0
 13 18  1  0
 18 19  2  0
 19 20  1  0
 20 21  1  0
 21 22  1  0
 22 23  2  0
 22 24  2  0
 22 25  1  0
 25 26  2  0
 26 27  1  0
 27 28  2  0
 28 29  1  0
 29 30  2  0
 20 31  2  0
 31 32  1  0
  8 33  1  0
 33 34  1  0
 34 35  2  0
 35 36  1  0
 36 37  2  0
 37 38  1  0
 38 39  2  0
 33 40  2  0
 40  5  1  0
 31 12  1  0
 39 34  1  0
 30 25  1  0
  1 41  1  0
  1 42  1  0
  4 43  1  0
  4 44  1  0
  6 45  1  0
  7 46  1  0
  9 47  1  0
 18 48  1  0
 19 49  1  0
 21 50  1  0
 21 51  1  0
 26 52  1  0
 27 53  1  0
 28 54  1  0
 29 55  1  0
 30 56  1  0
 35 57  1  0
 36 58  1  0
 37 59  1  0
 38 60  1  0
 39 61  1  0
 40 62  1  0
M  END
$$$$

     RDKit          3D

 62 65  0  0  0  0  0  0  0  0999 V2000
  131.7550  111.1720  126.4920 N   0  0  0  0  0  0  0  0  0  0  0  0
  131.5830  112.2870  127.2630 C   0  0  0  0  0  0  0  0  0  0  0  0
  130.5220  112.9040  127.2390 O   0  0  0  0  0  0  0  0  0  0  0  0
  132.7870  112.7370  128.0690 C   0  0  0  0  0  0  0  0  0  0  0  0
  132.5190  113.9430  128.9370 C   0  0  0  0  0  0  0  0  0  0  0  0
  133.4000  115.0260  128.9480 C   0  0  0  0  0  0  0  0  0  0  0  0
  133.1600  116.1300  129.7720 C   0  0  0  0  0  0  0  0  0  0  0  0
  132.0340  116.1790  130.6020 C   0  0  0  0  0  0  0  0  0  0  0  0
  131.7700  117.2840  131.4530 N   0  0  0  0  0  0  0  0  0  0  0  0
  131.2690  118.5180  131.1060 C   0  0  0  0  0  0  0  0  0  0  0  0
  130.9970  118.9410  129.9900 O   0  0  0  0  0  0  0  0  0  0  0  0
  131.0750  119.4460  132.2390 C   0  0  0  0  0  0  0  0  0  0  0  0
  131.7810  120.6570  132.3100 C   0  0  0  0  0  0  0  0  0  0  0  0
  132.8120  121.0340  131.2740 C   0  0  0  0  0  0  0  0  0  0  0  0
  133.6840  121.9830  131.7030 F   0  0  0  0  0  0  0  0  0  0  0  0
  133.5930  119.9680  130.9200 F   0  0  0  0  0  0  0  0  0  0  0  0
  132.2760  121.4740  130.1050 F   0  0  0  0  0  0  0  0  0  0  0  0
  131.5070  121.5280  133.3800 C   0  0  0  0  0  0  0  0  0  0  0  0
  130.5580  121.2000  134.3540 C   0  0  0  0  0  0  0  0  0  0  0  0
  129.8510  119.9940  134.2750 C   0  0  0  0  0  0  0  0  0  0  0  0
  128.8290  119.6200  135.3150 C   0  0  0  0  0  0  0  0  0  0  0  0
  129.6790  119.0320  136.7750 S   0  0  0  0  0  6  0  0  0  0  0  0
  129.5860  120.0500  137.8070 O   0  0  0  0  0  0  0  0  0  0  0  0
  130.9640  118.4750  136.3980 O   0  0  0  0  0  0  0  0  0  0  0  0
  128.6560  117.6700  137.2880 C   0  0  0  0  0  0  0  0  0  0  0  0
  128.2050  117.6130  138.6100 C   0  0  0  0  0  0  0  0  0  0  0  0
  127.4020  116.5460  139.0130 C   0  0  0  0  0  0  0  0  0  0  0  0
  127.0470  115.5530  138.0970 C   0  0  0  0  0  0  0  0  0  0  0  0
  127.4880  115.6250  136.7750 C   0  0  0  0  0  0  0  0  0  0  0  0
  128.2910  116.6880  136.3620 C   0  0  0  0  0  0  0  0  0  0  0  0
  130.1240  119.1260  133.2140 C   0  0  0  0  0  0  0  0  0  0  0  0
  129.4340  117.9790  133.1300 F   0  0  0  0  0  0  0  0  0  0  0  0
  131.1260  115.0910  130.5960 C   0  0  0  0  0  0  0  0  0  0  0  0
  129.9210  115.0580  131.4440 C   0  0  0  0  0  0  0  0  0  0  0  0
  129.9330  114.4110  132.6890 C   0  0  0  0  0  0  0  0  0  0  0  0
  128.7780  114.3460  133.4690 C   0  0  0  0  0  0  0  0  0  0  0  0
  127.5990  114.9380  133.0210 C   0  0  0  0  0  0  0  0  0  0  0  0
  127.5740  115.5980  131.7940 C   0  0  0  0  0  0  0  0  0  0  0  0
  128.7280  115.6570  131.0100 C   0  0  0  0  0  0  0  0  0  0  0  0
  131.3880  113.9870  129.7610 C   0  0  0  0  0  0  0  0  0  0  0  0
  132.4710  110.4950  126.7260 H   0  0  0  0  0  0  0  0  0  0  0  0
  130.9240  110.8210  126.0340 H   0  0  0  0  0  0  0  0  0  0  0  0
  133.1018  111.9057  128.7169 H   0  0  0  0  0  0  0  0  0  0  0  0
  133.5667  113.0257  127.3488 H   0  0  0  0  0  0  0  0  0  0  0  0
  134.2908  115.0107  128.3028 H   0  0  0  0  0  0  0  0  0  0  0  0
  133.8669  116.9728  129.7679 H   0  0  0  0  0  0  0  0  0  0  0  0
  131.9940  117.1380  132.4330 H   0  0  0  0  0  0  0  0  0  0  0  0
  132.0480  122.4830  133.4521 H   0  0  0  0  0  0  0  0  0  0  0  0
  130.3662  121.8931  135.1863 H   0  0  0  0  0  0  0  0  0  0  0  0
  128.2222  120.5012  135.5705 H   0  0  0  0  0  0  0  0  0  0  0  0
  128.1697  118.8312  134.9238 H   0  0  0  0  0  0  0  0  0  0  0  0
  128.4807  118.4018  139.3254 H   0  0  0  0  0  0  0  0  0  0  0  0
  127.0481  116.4865  140.0528 H   0  0  0  0  0  0  0  0  0  0  0  0
  126.4171  114.7107  138.4191 H   0  0  0  0  0  0  0  0  0  0  0  0
  127.2018  114.8420  136.0573 H   0  0  0  0  0  0  0  0  0  0  0  0
  128.6336  116.7531  135.3187 H   0  0  0  0  0  0  0  0  0  0  0  0
  130.8628  113.9502  133.0539 H   0  0  0  0  0  0  0  0  0  0  0  0
  128.7982  113.8269  134.4386 H   0  0  0  0  0  0  0  0  0  0  0  0
  126.6883  114.8844  133.6356 H   0  0  0  0  0  0  0  0  0  0  0  0
  126.6456  116.0723  131.4432 H   0  0  0  0  0  0  0  0  0  0  0  0
  128.7019  116.1785  130.0418 H   0  0  0  0  0  0  0  0  0  0  0  0
  130.6871  113.1392  129.7563 H   0  0  0  0  0  0  0  0  0  0  0  0
  1  2  1  0
  2  3  2  0
  2  4  1  0
  4  5  1  0
  5  6  2  0
  6  7  1  0
  7  8  2  0
  8  9  1  0
  9 10  1  0
 10 11  2  0
 10 12  1  0
 12 13  2  0
 13 14  1  0
 14 15  1  0
 14 16  1  0
 14 17  1  0
 13 18  1  0
 18 19  2  0
 19 20  1  0
 20 21  1  0
 21 22  1  0
 22 23  2  0
 22 24  2  0
 22 25  1  0
 25 26  2  0
 26 27  1  0
 27 28  2  0
 28 29  1  0
 29 30  2  0
 20 31  2  0
 31 32  1  0
  8 33  1  0
 33 34  1  0
 34 35  2  0
 35 36  1  0
 36 37  2  0
 37 38  1  0
 38 39  2  0
 33 40  2  0
 40  5  1  0
 31 12  1  0
 39 34  1  0
 30 25  1  0
  1 41  1  0
  1 42  1  0
  4 43  1  0
  4 44  1  0
  6 45  1  0
  7 46  1  0
  9 47  1  0
 18 48  1  0
 19 49  1  0
 21 50  1  0
 21 51  1  0
 26 52  1  0
 27 53  1  0
 28 54  1  0
 29 55  1  0
 30 56  1  0
 35 57  1  0
 36 58  1  0
 37 59  1  0
 38 60  1  0
 39 61  1  0
 40 62  1  0
M  END
$$$$

     RDKit          3D

 62 65  0  0  0  0  0  0  0  0999 V2000
  131.7400  111.1500  126.5120 N   0  0  0  0  0  0  0  0  0  0  0  0
  131.5770  112.2780  127.2650 C   0  0  0  0  0  0  0  0  0  0  0  0
  130.5190  112.8980  127.2370 O   0  0  0  0  0  0  0  0  0  0  0  0
  132.7880  112.7360  128.0560 C   0  0  0  0  0  0  0  0  0  0  0  0
  132.5210  113.9380  128.9300 C   0  0  0  0  0  0  0  0  0  0  0  0
  133.4050  115.0190  128.9490 C   0  0  0  0  0  0  0  0  0  0  0  0
  133.1660  116.1190  129.7790 C   0  0  0  0  0  0  0  0  0  0  0  0
  132.0380  116.1670  130.6060 C   0  0  0  0  0  0  0  0  0  0  0  0
  131.7750  117.2670  131.4620 N   0  0  0  0  0  0  0  0  0  0  0  0
  131.2820  118.5070  131.1200 C   0  0  0  0  0  0  0  0  0  0  0  0
  131.0180  118.9380  130.0050 O   0  0  0  0  0  0  0  0  0  0  0  0
  131.0860  119.4280  132.2570 C   0  0  0  0  0  0  0  0  0  0  0  0
  131.7700  120.6520  132.3210 C   0  0  0  0  0  0  0  0  0  0  0  0
  132.7810  121.0500  131.2730 C   0  0  0  0  0  0  0  0  0  0  0  0
  133.5880  120.0270  130.8880 F   0  0  0  0  0  0  0  0  0  0  0  0
  132.1800  121.4800  130.1220 F   0  0  0  0  0  0  0  0  0  0  0  0
  133.5830  122.0800  131.6510 F   0  0  0  0  0  0  0  0  0  0  0  0
  131.4950  121.5160  133.3970 C   0  0  0  0  0  0  0  0  0  0  0  0
  130.5660  121.1690  134.3830 C   0  0  0  0  0  0  0  0  0  0  0  0
  129.8800  119.9510  134.3110 C   0  0  0  0  0  0  0  0  0  0  0  0
  128.8790  119.5560  135.3630 C   0  0  0  0  0  0  0  0  0  0  0  0
  129.7590  118.9980  136.8180 S   0  0  0  0  0  6  0  0  0  0  0  0
  129.6950  120.0400  137.8260 O   0  0  0  0  0  0  0  0  0  0  0  0
  131.0330  118.4250  136.4250 O   0  0  0  0  0  0  0  0  0  0  0  0
  128.7420  117.6540  137.3860 C   0  0  0  0  0  0  0  0  0  0  0  0
  128.5800  116.5270  136.5730 C   0  0  0  0  0  0  0  0  0  0  0  0
  127.7840  115.4720  137.0180 C   0  0  0  0  0  0  0  0  0  0  0  0
  127.1660  115.5420  138.2690 C   0  0  0  0  0  0  0  0  0  0  0  0
  127.3450  116.6620  139.0810 C   0  0  0  0  0  0  0  0  0  0  0  0
  128.1390  117.7230  138.6450 C   0  0  0  0  0  0  0  0  0  0  0  0
  130.1540  119.0900  133.2440 C   0  0  0  0  0  0  0  0  0  0  0  0
  129.4850  117.9300  133.1670 F   0  0  0  0  0  0  0  0  0  0  0  0
  131.1270  115.0820  130.5910 C   0  0  0  0  0  0  0  0  0  0  0  0
  129.9190  115.0480  131.4350 C   0  0  0  0  0  0  0  0  0  0  0  0
  128.7170  115.6240  130.9960 C   0  0  0  0  0  0  0  0  0  0  0  0
  127.5880  115.6280  131.8160 C   0  0  0  0  0  0  0  0  0  0  0  0
  127.6410  115.0430  133.0800 C   0  0  0  0  0  0  0  0  0  0  0  0
  128.8230  114.4540  133.5250 C   0  0  0  0  0  0  0  0  0  0  0  0
  129.9550  114.4570  132.7080 C   0  0  0  0  0  0  0  0  0  0  0  0
  131.3870  113.9820  129.7500 C   0  0  0  0  0  0  0  0  0  0  0  0
  132.4550  110.4740  126.7530 H   0  0  0  0  0  0  0  0  0  0  0  0
  130.9060  110.7940  126.0640 H   0  0  0  0  0  0  0  0  0  0  0  0
  133.1181  111.9060  128.6979 H   0  0  0  0  0  0  0  0  0  0  0  0
  133.5561  113.0324  127.3265 H   0  0  0  0  0  0  0  0  0  0  0  0
  134.2971  115.0052  128.3055 H   0  0  0  0  0  0  0  0  0  0  0  0
  133.8756  116.9595  129.7818 H   0  0  0  0  0  0  0  0  0  0  0  0
  131.9930  117.1150  132.4420 H   0  0  0  0  0  0  0  0  0  0  0  0
  132.0196  122.4806  133.4637 H   0  0  0  0  0  0  0  0  0  0  0  0
  130.3733  121.8568  135.2195 H   0  0  0  0  0  0  0  0  0  0  0  0
  128.2519  120.4224  135.6201 H   0  0  0  0  0  0  0  0  0  0  0  0
  128.2368  118.7480  134.9825 H   0  0  0  0  0  0  0  0  0  0  0  0
  129.0756  116.4736  135.5924 H   0  0  0  0  0  0  0  0  0  0  0  0
  127.6426  114.5844  136.3838 H   0  0  0  0  0  0  0  0  0  0  0  0
  126.5353  114.7100  138.6153 H   0  0  0  0  0  0  0  0  0  0  0  0
  126.8592  116.7087  140.0668 H   0  0  0  0  0  0  0  0  0  0  0  0
  128.2889  118.6047  139.2854 H   0  0  0  0  0  0  0  0  0  0  0  0
  128.6643  116.0771  129.9950 H   0  0  0  0  0  0  0  0  0  0  0  0
  126.6553  116.0933  131.4645 H   0  0  0  0  0  0  0  0  0  0  0  0
  126.7505  115.0462  133.7258 H   0  0  0  0  0  0  0  0  0  0  0  0
  128.8640  113.9867  134.5200 H   0  0  0  0  0  0  0  0  0  0  0  0
  130.8852  113.9913  133.0655 H   0  0  0  0  0  0  0  0  0  0  0  0
  130.6822  113.1375  129.7373 H   0  0  0  0  0  0  0  0  0  0  0  0
  1  2  1  0
  2  3  2  0
  2  4  1  0
  4  5  1  0
  5  6  2  0
  6  7  1  0
  7  8  2  0
  8  9  1  0
  9 10  1  0
 10 11  2  0
 10 12  1  0
 12 13  2  0
 13 14  1  0
 14 15  1  0
 14 16  1  0
 14 17  1  0
 13 18  1  0
 18 19  2  0
 19 20  1  0
 20 21  1  0
 21 22  1  0
 22 23  2  0
 22 24  2  0
 22 25  1  0
 25 26  2  0
 26 27  1  0
 27 28  2  0
 28 29  1  0
 29 30  2  0
 20 31  2  0
 31 32  1  0
  8 33  1  0
 33 34  1  0
 34 35  2  0
 35 36  1  0
 36 37  2  0
 37 38  1  0
 38 39  2  0
 33 40  2  0
 40  5  1  0
 31 12  1  0
 39 34  1  0
 30 25  1  0
  1 41  1  0
  1 42  1  0
  4 43  1  0
  4 44  1  0
  6 45  1  0
  7 46  1  0
  9 47  1  0
 18 48  1  0
 19 49  1  0
 21 50  1  0
 21 51  1  0
 26 52  1  0
 27 53  1  0
 28 54  1  0
 29 55  1  0
 30 56  1  0
 35 57  1  0
 36 58  1  0
 37 59  1  0
 38 60  1  0
 39 61  1  0
 40 62  1  0
M  END
$$$$

     RDKit          3D

 62 65  0  0  0  0  0  0  0  0999 V2000
  132.2620  111.7480  127.1310 N   0  0  0  0  0  0  0  0  0  0  0  0
  133.0000  112.5100  127.9930 C   0  0  0  0  0  0  0  0  0  0  0  0
  133.3220  112.0730  129.0930 O   0  0  0  0  0  0  0  0  0  0  0  0
  133.3170  113.9210  127.5350 C   0  0  0  0  0  0  0  0  0  0  0  0
  132.9550  114.9820  128.5470 C   0  0  0  0  0  0  0  0  0  0  0  0
  133.7360  116.1300  128.6890 C   0  0  0  0  0  0  0  0  0  0  0  0
  133.4120  117.0980  129.6450 C   0  0  0  0  0  0  0  0  0  0  0  0
  132.2980  116.9430  130.4790 C   0  0  0  0  0  0  0  0  0  0  0  0
  131.9500  117.9050  131.4620 N   0  0  0  0  0  0  0  0  0  0  0  0
  131.3120  119.1110  131.2760 C   0  0  0  0  0  0  0  0  0  0  0  0
  130.9600  119.6300  130.2250 O   0  0  0  0  0  0  0  0  0  0  0  0
  131.0610  119.8740  132.5160 C   0  0  0  0  0  0  0  0  0  0  0  0
  131.7470  121.0690  132.7800 C   0  0  0  0  0  0  0  0  0  0  0  0
  132.8140  121.5910  131.8490 C   0  0  0  0  0  0  0  0  0  0  0  0
  133.7180  122.3970  132.4650 F   0  0  0  0  0  0  0  0  0  0  0  0
  133.5540  120.5800  131.3010 F   0  0  0  0  0  0  0  0  0  0  0  0
  132.3200  122.2760  130.7830 F   0  0  0  0  0  0  0  0  0  0  0  0
  131.4200  121.7830  133.9470 C   0  0  0  0  0  0  0  0  0  0  0  0
  130.4380  121.3180  134.8270 C   0  0  0  0  0  0  0  0  0  0  0  0
  129.7500  120.1290  134.5550 C   0  0  0  0  0  0  0  0  0  0  0  0
  128.6930  119.6090  135.4920 C   0  0  0  0  0  0  0  0  0  0  0  0
  129.4900  118.7840  136.8640 S   0  0  0  0  0  6  0  0  0  0  0  0
  129.5480  119.7030  137.9860 O   0  0  0  0  0  0  0  0  0  0  0  0
  130.6870  118.1100  136.3960 O   0  0  0  0  0  0  0  0  0  0  0  0
  128.3140  117.5170  137.2820 C   0  0  0  0  0  0  0  0  0  0  0  0
  127.8060  116.6950  136.2720 C   0  0  0  0  0  0  0  0  0  0  0  0
  126.8840  115.6990  136.6000 C   0  0  0  0  0  0  0  0  0  0  0  0
  126.4860  115.5250  137.9270 C   0  0  0  0  0  0  0  0  0  0  0  0
  127.0100  116.3400  138.9320 C   0  0  0  0  0  0  0  0  0  0  0  0
  127.9310  117.3370  138.6150 C   0  0  0  0  0  0  0  0  0  0  0  0
  130.0760  119.4170  133.3980 C   0  0  0  0  0  0  0  0  0  0  0  0
  129.4060  118.2860  133.1300 F   0  0  0  0  0  0  0  0  0  0  0  0
  131.4900  115.7870  130.3410 C   0  0  0  0  0  0  0  0  0  0  0  0
  130.3060  115.5410  131.1820 C   0  0  0  0  0  0  0  0  0  0  0  0
  129.0420  116.0220  130.8060 C   0  0  0  0  0  0  0  0  0  0  0  0
  127.9310  115.8240  131.6270 C   0  0  0  0  0  0  0  0  0  0  0  0
  128.0660  115.1310  132.8280 C   0  0  0  0  0  0  0  0  0  0  0  0
  129.3100  114.6350  133.2100 C   0  0  0  0  0  0  0  0  0  0  0  0
  130.4230  114.8390  132.3920 C   0  0  0  0  0  0  0  0  0  0  0  0
  131.8370  114.8220  129.3740 C   0  0  0  0  0  0  0  0  0  0  0  0
  132.2590  111.9550  126.1400 H   0  0  0  0  0  0  0  0  0  0  0  0
  132.1360  110.7800  127.3970 H   0  0  0  0  0  0  0  0  0  0  0  0
  134.3964  113.9867  127.3335 H   0  0  0  0  0  0  0  0  0  0  0  0
  132.7108  114.1120  126.6372 H   0  0  0  0  0  0  0  0  0  0  0  0
  134.6145  116.2747  128.0430 H   0  0  0  0  0  0  0  0  0  0  0  0
  134.0418  117.9945  129.7432 H   0  0  0  0  0  0  0  0  0  0  0  0
  132.2210  117.6710  132.4120 H   0  0  0  0  0  0  0  0  0  0  0  0
  131.9457  122.7229  134.1711 H   0  0  0  0  0  0  0  0  0  0  0  0
  130.2046  121.8891  135.7377 H   0  0  0  0  0  0  0  0  0  0  0  0
  128.0870  120.4471  135.8667 H   0  0  0  0  0  0  0  0  0  0  0  0
  128.0393  118.9016  134.9607 H   0  0  0  0  0  0  0  0  0  0  0  0
  128.1293  116.8314  135.2295 H   0  0  0  0  0  0  0  0  0  0  0  0
  126.4711  115.0512  135.8127 H   0  0  0  0  0  0  0  0  0  0  0  0
  125.7563  114.7423  138.1816 H   0  0  0  0  0  0  0  0  0  0  0  0
  126.6955  116.1951  139.9761 H   0  0  0  0  0  0  0  0  0  0  0  0
  128.3523  117.9758  139.4052 H   0  0  0  0  0  0  0  0  0  0  0  0
  128.9260  116.5608  129.8540 H   0  0  0  0  0  0  0  0  0  0  0  0
  126.9481  116.2153  131.3257 H   0  0  0  0  0  0  0  0  0  0  0  0
  127.1898  114.9756  133.4747 H   0  0  0  0  0  0  0  0  0  0  0  0
  129.4157  114.0829  134.1555 H   0  0  0  0  0  0  0  0  0  0  0  0
  131.4030  114.4450  132.6993 H   0  0  0  0  0  0  0  0  0  0  0  0
  131.2143  113.9216  129.2666 H   0  0  0  0  0  0  0  0  0  0  0  0
  1  2  1  0
  2  3  2  0
  2  4  1  0
  4  5  1  0
  5  6  2  0
  6  7  1  0
  7  8  2  0
  8  9  1  0
  9 10  1  0
 10 11  2  0
 10 12  1  0
 12 13  2  0
 13 14  1  0
 14 15  1  0
 14 16  1  0
 14 17  1  0
 13 18  1  0
 18 19  2  0
 19 20  1  0
 20 21  1  0
 21 22  1  0
 22 23  2  0
 22 24  2  0
 22 25  1  0
 25 26  2  0
 26 27  1  0
 27 28  2  0
 28 29  1  0
 29 30  2  0
 20 31  2  0
 31 32  1  0
  8 33  1  0
 33 34  1  0
 34 35  2  0
 35 36  1  0
 36 37  2  0
 37 38  1  0
 38 39  2  0
 33 40  2  0
 40  5  1  0
 31 12  1  0
 39 34  1  0
 30 25  1  0
  1 41  1  0
  1 42  1  0
  4 43  1  0
  4 44  1  0
  6 45  1  0
  7 46  1  0
  9 47  1  0
 18 48  1  0
 19 49  1  0
 21 50  1  0
 21 51  1  0
 26 52  1  0
 27 53  1  0
 28 54  1  0
 29 55  1  0
 30 56  1  0
 35 57  1  0
 36 58  1  0
 37 59  1  0
 38 60  1  0
 39 61  1  0
 40 62  1  0
M  END
$$$$

     RDKit          3D

 62 65  0  0  0  0  0  0  0  0999 V2000
  135.0820  112.2070  129.7090 N   0  0  0  0  0  0  0  0  0  0  0  0
  134.7410  112.5470  128.4300 C   0  0  0  0  0  0  0  0  0  0  0  0
  135.5980  112.6200  127.5550 O   0  0  0  0  0  0  0  0  0  0  0  0
  133.2820  112.8900  128.1940 C   0  0  0  0  0  0  0  0  0  0  0  0
  132.8060  114.0850  128.9860 C   0  0  0  0  0  0  0  0  0  0  0  0
  133.5120  115.2890  128.9590 C   0  0  0  0  0  0  0  0  0  0  0  0
  133.0810  116.3840  129.7130 C   0  0  0  0  0  0  0  0  0  0  0  0
  131.9340  116.3040  130.5110 C   0  0  0  0  0  0  0  0  0  0  0  0
  131.4780  117.3970  131.2920 N   0  0  0  0  0  0  0  0  0  0  0  0
  132.1390  118.5730  131.5690 C   0  0  0  0  0  0  0  0  0  0  0  0
  133.2740  118.9000  131.2470 O   0  0  0  0  0  0  0  0  0  0  0  0
  131.3730  119.5330  132.3890 C   0  0  0  0  0  0  0  0  0  0  0  0
  131.5410  120.9170  132.2250 C   0  0  0  0  0  0  0  0  0  0  0  0
  132.5530  121.4830  131.2580 C   0  0  0  0  0  0  0  0  0  0  0  0
  133.8360  121.1800  131.5840 F   0  0  0  0  0  0  0  0  0  0  0  0
  132.3810  120.9900  129.9940 F   0  0  0  0  0  0  0  0  0  0  0  0
  132.4770  122.8330  131.1170 F   0  0  0  0  0  0  0  0  0  0  0  0
  130.7380  121.7820  132.9900 C   0  0  0  0  0  0  0  0  0  0  0  0
  129.7960  121.2830  133.8950 C   0  0  0  0  0  0  0  0  0  0  0  0
  129.6270  119.9020  134.0500 C   0  0  0  0  0  0  0  0  0  0  0  0
  128.6220  119.3430  135.0210 C   0  0  0  0  0  0  0  0  0  0  0  0
  129.3610  119.2870  136.6490 S   0  0  0  0  0  6  0  0  0  0  0  0
  128.8750  120.4200  137.4180 O   0  0  0  0  0  0  0  0  0  0  0  0
  130.7840  119.0300  136.5280 O   0  0  0  0  0  0  0  0  0  0  0  0
  128.6290  117.8250  137.3500 C   0  0  0  0  0  0  0  0  0  0  0  0
  128.0540  117.8900  138.6220 C   0  0  0  0  0  0  0  0  0  0  0  0
  127.4780  116.7440  139.1710 C   0  0  0  0  0  0  0  0  0  0  0  0
  127.4710  115.5490  138.4480 C   0  0  0  0  0  0  0  0  0  0  0  0
  128.0340  115.4960  137.1710 C   0  0  0  0  0  0  0  0  0  0  0  0
  128.6120  116.6360  136.6140 C   0  0  0  0  0  0  0  0  0  0  0  0
  130.4260  119.0400  133.2920 C   0  0  0  0  0  0  0  0  0  0  0  0
  130.2520  117.7170  133.4290 F   0  0  0  0  0  0  0  0  0  0  0  0
  131.2010  115.0910  130.5440 C   0  0  0  0  0  0  0  0  0  0  0  0
  129.9880  114.9180  131.3610 C   0  0  0  0  0  0  0  0  0  0  0  0
  128.7540  115.4390  130.9400 C   0  0  0  0  0  0  0  0  0  0  0  0
  127.6170  115.3100  131.7380 C   0  0  0  0  0  0  0  0  0  0  0  0
  127.6940  114.6470  132.9610 C   0  0  0  0  0  0  0  0  0  0  0  0
  128.9080  114.1120  133.3880 C   0  0  0  0  0  0  0  0  0  0  0  0
  130.0470  114.2470  132.5930 C   0  0  0  0  0  0  0  0  0  0  0  0
  131.6550  113.9980  129.7780 C   0  0  0  0  0  0  0  0  0  0  0  0
  134.3820  111.8430  130.3440 H   0  0  0  0  0  0  0  0  0  0  0  0
  136.0320  111.8850  129.8410 H   0  0  0  0  0  0  0  0  0  0  0  0
  133.1439  113.1045  127.1240 H   0  0  0  0  0  0  0  0  0  0  0  0
  132.6893  112.0253  128.5272 H   0  0  0  0  0  0  0  0  0  0  0  0
  134.4160  115.3767  128.3385 H   0  0  0  0  0  0  0  0  0  0  0  0
  133.6522  117.3234  129.6787 H   0  0  0  0  0  0  0  0  0  0  0  0
  130.5560  117.2810  131.7020 H   0  0  0  0  0  0  0  0  0  0  0  0
  130.8530  122.8698  132.8744 H   0  0  0  0  0  0  0  0  0  0  0  0
  129.1847  121.9791  134.4881 H   0  0  0  0  0  0  0  0  0  0  0  0
  127.7305  119.9870  135.0418 H   0  0  0  0  0  0  0  0  0  0  0  0
  128.3261  118.3301  134.7103 H   0  0  0  0  0  0  0  0  0  0  0  0
  128.0555  118.8352  139.1847 H   0  0  0  0  0  0  0  0  0  0  0  0
  127.0289  116.7816  140.1744 H   0  0  0  0  0  0  0  0  0  0  0  0
  127.0204  114.6462  138.8860 H   0  0  0  0  0  0  0  0  0  0  0  0
  128.0214  114.5536  136.6039 H   0  0  0  0  0  0  0  0  0  0  0  0
  129.0503  116.6005  135.6057 H   0  0  0  0  0  0  0  0  0  0  0  0
  128.6830  115.9543  129.9708 H   0  0  0  0  0  0  0  0  0  0  0  0
  126.6587  115.7322  131.4013 H   0  0  0  0  0  0  0  0  0  0  0  0
  126.7968  114.5459  133.5894 H   0  0  0  0  0  0  0  0  0  0  0  0
  128.9684  113.5837  134.3509 H   0  0  0  0  0  0  0  0  0  0  0  0
  131.0023  113.8227  132.9356 H   0  0  0  0  0  0  0  0  0  0  0  0
  131.0911  113.0539  129.8033 H   0  0  0  0  0  0  0  0  0  0  0  0
  1  2  1  0
  2  3  2  0
  2  4  1  0
  4  5  1  0
  5  6  2  0
  6  7  1  0
  7  8  2  0
  8  9  1  0
  9 10  1  0
 10 11  2  0
 10 12  1  0
 12 13  2  0
 13 14  1  0
 14 15  1  0
 14 16  1  0
 14 17  1  0
 13 18  1  0
 18 19  2  0
 19 20  1  0
 20 21  1  0
 21 22  1  0
 22 23  2  0
 22 24  2  0
 22 25  1  0
 25 26  2  0
 26 27  1  0
 27 28  2  0
 28 29  1  0
 29 30  2  0
 20 31  2  0
 31 32  1  0
  8 33  1  0
 33 34  1  0
 34 35  2  0
 35 36  1  0
 36 37  2  0
 37 38  1  0
 38 39  2  0
 33 40  2  0
 40  5  1  0
 31 12  1  0
 39 34  1  0
 30 25  1  0
  1 41  1  0
  1 42  1  0
  4 43  1  0
  4 44  1  0
  6 45  1  0
  7 46  1  0
  9 47  1  0
 18 48  1  0
 19 49  1  0
 21 50  1  0
 21 51  1  0
 26 52  1  0
 27 53  1  0
 28 54  1  0
 29 55  1  0
 30 56  1  0
 35 57  1  0
 36 58  1  0
 37 59  1  0
 38 60  1  0
 39 61  1  0
 40 62  1  0
M  END
$$$$

