
     RDKit          3D

 71 74  0  0  0  0  0  0  0  0999 V2000
  133.0420  120.3390  130.5070 C   0  0  0  0  0  0  0  0  0  0  0  0
  131.9090  120.4860  131.5110 C   0  0  0  0  0  0  0  0  0  0  0  0
  131.6730  119.2280  132.3490 C   0  0  0  0  0  0  0  0  0  0  0  0
  130.2420  118.7000  132.2500 C   0  0  0  0  0  0  0  0  0  0  0  0
  130.2030  117.2500  132.1550 N   0  0  0  0  0  0  0  0  0  0  0  0
  129.3390  116.4100  132.8280 C   0  0  0  0  0  0  0  0  0  0  0  0
  128.2980  116.8920  133.7900 C   0  0  0  0  0  0  0  0  0  0  0  0
  127.5710  115.7380  134.4780 C   0  0  0  0  0  0  0  0  0  0  0  0
  128.1540  115.4600  135.8500 C   0  0  0  0  0  0  0  0  0  0  0  0
  129.1970  114.8170  135.9770 O   0  0  0  0  0  0  0  0  0  0  0  0
  127.4570  115.9650  136.9440 N   0  0  0  0  0  0  0  0  0  0  0  0
  126.1520  115.4750  137.3710 C   0  0  0  0  0  0  0  0  0  0  0  0
  128.1640  116.8460  137.8730 C   0  0  0  0  0  0  0  0  0  0  0  0
  128.8300  118.0060  137.1780 C   0  0  0  0  0  0  0  0  0  0  0  0
  128.0840  119.1260  136.7770 C   0  0  0  0  0  0  0  0  0  0  0  0
  128.6860  120.1930  136.0960 C   0  0  0  0  0  0  0  0  0  0  0  0
  127.9250  121.3450  135.8300 N   0  0  0  0  0  0  0  0  0  0  0  0
  130.0780  120.1570  135.8950 C   0  0  0  0  0  0  0  0  0  0  0  0
  130.8930  121.4750  135.1250 Cl  0  0  0  0  0  0  0  0  0  0  0  0
  130.8320  119.0510  136.2830 C   0  0  0  0  0  0  0  0  0  0  0  0
  130.1990  117.9860  136.9140 C   0  0  0  0  0  0  0  0  0  0  0  0
  130.9340  116.9240  137.2750 F   0  0  0  0  0  0  0  0  0  0  0  0
  129.5680  115.1530  132.5050 N   0  0  0  0  0  0  0  0  0  0  0  0
  130.6050  115.1750  131.6100 C   0  0  0  0  0  0  0  0  0  0  0  0
  131.2360  114.1040  130.9650 C   0  0  0  0  0  0  0  0  0  0  0  0
  132.2760  114.3980  130.0750 C   0  0  0  0  0  0  0  0  0  0  0  0
  133.1050  113.0770  129.2310 S   0  0  0  0  0  6  0  0  0  0  0  0
  132.4450  112.8500  127.9640 O   0  0  0  0  0  0  0  0  0  0  0  0
  133.2760  112.0020  130.1860 O   0  0  0  0  0  0  0  0  0  0  0  0
  134.6360  113.7500  128.9110 N   0  0  0  0  0  0  0  0  0  0  0  0
  135.6350  112.8700  128.2220 C   0  0  0  0  0  0  0  0  0  0  0  0
  136.3860  111.9670  129.2070 C   0  0  0  0  0  0  0  0  0  0  0  0
  136.9930  112.7290  130.2610 O   0  0  0  0  0  0  0  0  0  0  0  0
  135.9960  113.4590  130.9890 C   0  0  0  0  0  0  0  0  0  0  0  0
  135.2740  114.4480  130.0710 C   0  0  0  0  0  0  0  0  0  0  0  0
  132.6960  115.7130  129.8420 C   0  0  0  0  0  0  0  0  0  0  0  0
  132.0730  116.7860  130.4860 C   0  0  0  0  0  0  0  0  0  0  0  0
  131.0240  116.4780  131.3640 C   0  0  0  0  0  0  0  0  0  0  0  0
  133.9940  120.2155  131.0440 H   0  0  0  0  0  0  0  0  0  0  0  0
  132.8601  119.4569  129.8754 H   0  0  0  0  0  0  0  0  0  0  0  0
  133.0913  121.2383  129.8754 H   0  0  0  0  0  0  0  0  0  0  0  0
  132.1504  121.3171  132.1900 H   0  0  0  0  0  0  0  0  0  0  0  0
  130.9889  120.6716  130.9375 H   0  0  0  0  0  0  0  0  0  0  0  0
  132.3605  118.4425  132.0022 H   0  0  0  0  0  0  0  0  0  0  0  0
  131.8509  119.4969  133.4007 H   0  0  0  0  0  0  0  0  0  0  0  0
  129.6852  119.0125  133.1457 H   0  0  0  0  0  0  0  0  0  0  0  0
  129.7894  119.1131  131.3365 H   0  0  0  0  0  0  0  0  0  0  0  0
  128.7845  117.5122  134.5573 H   0  0  0  0  0  0  0  0  0  0  0  0
  127.5540  117.4695  133.2217 H   0  0  0  0  0  0  0  0  0  0  0  0
  126.5077  115.9980  134.5864 H   0  0  0  0  0  0  0  0  0  0  0  0
  127.6897  114.8353  133.8607 H   0  0  0  0  0  0  0  0  0  0  0  0
  126.1082  115.4585  138.4700 H   0  0  0  0  0  0  0  0  0  0  0  0
  125.3659  116.1392  136.9826 H   0  0  0  0  0  0  0  0  0  0  0  0
  125.9973  114.4575  136.9826 H   0  0  0  0  0  0  0  0  0  0  0  0
  127.4421  117.2402  138.6034 H   0  0  0  0  0  0  0  0  0  0  0  0
  128.9516  116.2529  138.3609 H   0  0  0  0  0  0  0  0  0  0  0  0
  127.0079  119.1667  137.0013 H   0  0  0  0  0  0  0  0  0  0  0  0
  126.9320  121.1470  135.7220 H   0  0  0  0  0  0  0  0  0  0  0  0
  128.1110  122.1240  136.4540 H   0  0  0  0  0  0  0  0  0  0  0  0
  131.9149  119.0210  136.0923 H   0  0  0  0  0  0  0  0  0  0  0  0
  130.9246  113.0656  131.1515 H   0  0  0  0  0  0  0  0  0  0  0  0
  135.1071  112.2375  127.4931 H   0  0  0  0  0  0  0  0  0  0  0  0
  136.3731  113.5188  127.7277 H   0  0  0  0  0  0  0  0  0  0  0  0
  135.6769  111.2502  129.6468 H   0  0  0  0  0  0  0  0  0  0  0  0
  137.1819  111.4432  128.6572 H   0  0  0  0  0  0  0  0  0  0  0  0
  135.2635  112.7524  131.4063 H   0  0  0  0  0  0  0  0  0  0  0  0
  136.4874  114.0200  131.7976 H   0  0  0  0  0  0  0  0  0  0  0  0
  134.4954  114.9688  130.6477 H   0  0  0  0  0  0  0  0  0  0  0  0
  136.0141  115.1622  129.6810 H   0  0  0  0  0  0  0  0  0  0  0  0
  133.5251  115.9039  129.1447 H   0  0  0  0  0  0  0  0  0  0  0  0
  132.3912  117.8245  130.3119 H   0  0  0  0  0  0  0  0  0  0  0  0
  1  2  1  0
  2  3  1  0
  3  4  1  0
  4  5  1  0
  5  6  1  0
  6  7  1  0
  7  8  1  0
  8  9  1  0
  9 10  2  0
  9 11  1  0
 11 12  1  0
 11 13  1  0
 13 14  1  0
 14 15  2  0
 15 16  1  0
 16 17  1  0
 16 18  2  0
 18 19  1  0
 18 20  1  0
 20 21  2  0
 21 22  1  0
  6 23  2  0
 23 24  1  0
 24 25  2  0
 25 26  1  0
 26 27  1  0
 27 28  2  0
 27 29  2  0
 27 30  1  0
 30 31  1  0
 31 32  1  0
 32 33  1  0
 33 34  1  0
 34 35  1  0
 26 36  2  0
 36 37  1  0
 37 38  2  0
 38  5  1  0
 21 14  1  0
 38 24  1  0
 35 30  1  0
  1 39  1  0
  1 40  1  0
  1 41  1  0
  2 42  1  0
  2 43  1  0
  3 44  1  0
  3 45  1  0
  4 46  1  0
  4 47  1  0
  7 48  1  0
  7 49  1  0
  8 50  1  0
  8 51  1  0
 12 52  1  0
 12 53  1  0
 12 54  1  0
 13 55  1  0
 13 56  1  0
 15 57  1  0
 17 58  1  0
 17 59  1  0
 20 60  1  0
 25 61  1  0
 31 62  1  0
 31 63  1  0
 32 64  1  0
 32 65  1  0
 34 66  1  0
 34 67  1  0
 35 68  1  0
 35 69  1  0
 36 70  1  0
 37 71  1  0
M  END
$$$$

     RDKit          3D

 71 74  0  0  0  0  0  0  0  0999 V2000
  127.0380  113.7630  131.4360 C   0  0  0  0  0  0  0  0  0  0  0  0
  127.1410  115.1760  131.9910 C   0  0  0  0  0  0  0  0  0  0  0  0
  128.0270  116.0950  131.1470 C   0  0  0  0  0  0  0  0  0  0  0  0
  129.0050  116.9200  131.9840 C   0  0  0  0  0  0  0  0  0  0  0  0
  130.3230  116.9840  131.3750 N   0  0  0  0  0  0  0  0  0  0  0  0
  131.1520  118.0870  131.3350 C   0  0  0  0  0  0  0  0  0  0  0  0
  130.7900  119.4160  131.9210 C   0  0  0  0  0  0  0  0  0  0  0  0
  131.0300  119.4650  133.4280 C   0  0  0  0  0  0  0  0  0  0  0  0
  129.8890  120.1590  134.1460 C   0  0  0  0  0  0  0  0  0  0  0  0
  129.0810  120.8550  133.5280 O   0  0  0  0  0  0  0  0  0  0  0  0
  129.8010  119.9680  135.5220 N   0  0  0  0  0  0  0  0  0  0  0  0
  128.9910  120.7980  136.4060 C   0  0  0  0  0  0  0  0  0  0  0  0
  130.3310  118.7290  136.0880 C   0  0  0  0  0  0  0  0  0  0  0  0
  129.2670  117.8910  136.7480 C   0  0  0  0  0  0  0  0  0  0  0  0
  128.9330  118.0880  138.0990 C   0  0  0  0  0  0  0  0  0  0  0  0
  127.9720  117.2890  138.7330 C   0  0  0  0  0  0  0  0  0  0  0  0
  127.5830  117.6090  140.0460 N   0  0  0  0  0  0  0  0  0  0  0  0
  127.2830  116.3340  137.9630 C   0  0  0  0  0  0  0  0  0  0  0  0
  126.0350  115.3660  138.6690 Cl  0  0  0  0  0  0  0  0  0  0  0  0
  127.6040  116.1240  136.6230 C   0  0  0  0  0  0  0  0  0  0  0  0
  128.5960  116.8980  136.0330 C   0  0  0  0  0  0  0  0  0  0  0  0
  128.9020  116.6800  134.7460 F   0  0  0  0  0  0  0  0  0  0  0  0
  132.2790  117.7980  130.7140 N   0  0  0  0  0  0  0  0  0  0  0  0
  132.1780  116.4840  130.3370 C   0  0  0  0  0  0  0  0  0  0  0  0
  133.1010  115.6930  129.6430 C   0  0  0  0  0  0  0  0  0  0  0  0
  132.7590  114.3600  129.3910 C   0  0  0  0  0  0  0  0  0  0  0  0
  133.8960  113.3140  128.5180 S   0  0  0  0  0  6  0  0  0  0  0  0
  133.7270  113.5290  127.0980 O   0  0  0  0  0  0  0  0  0  0  0  0
  133.7810  111.9890  129.0910 O   0  0  0  0  0  0  0  0  0  0  0  0
  135.4060  113.9580  128.9700 N   0  0  0  0  0  0  0  0  0  0  0  0
  136.6260  113.2680  128.4390 C   0  0  0  0  0  0  0  0  0  0  0  0
  137.0310  112.0650  129.3000 C   0  0  0  0  0  0  0  0  0  0  0  0
  137.1930  112.4350  130.6760 O   0  0  0  0  0  0  0  0  0  0  0  0
  135.9690  112.9710  131.1980 C   0  0  0  0  0  0  0  0  0  0  0  0
  135.5630  114.2330  130.4340 C   0  0  0  0  0  0  0  0  0  0  0  0
  131.5290  113.8260  129.7940 C   0  0  0  0  0  0  0  0  0  0  0  0
  130.6020  114.6120  130.4840 C   0  0  0  0  0  0  0  0  0  0  0  0
  130.9630  115.9410  130.7430 C   0  0  0  0  0  0  0  0  0  0  0  0
  126.9857  113.0452  132.2679 H   0  0  0  0  0  0  0  0  0  0  0  0
  126.1312  113.6764  130.8194 H   0  0  0  0  0  0  0  0  0  0  0  0
  127.9227  113.5458  130.8194 H   0  0  0  0  0  0  0  0  0  0  0  0
  126.1306  115.6086  132.0343 H   0  0  0  0  0  0  0  0  0  0  0  0
  127.6033  115.1021  132.9864 H   0  0  0  0  0  0  0  0  0  0  0  0
  128.6036  115.4761  130.4438 H   0  0  0  0  0  0  0  0  0  0  0  0
  127.3642  116.8016  130.6261 H   0  0  0  0  0  0  0  0  0  0  0  0
  128.6109  117.9419  132.0860 H   0  0  0  0  0  0  0  0  0  0  0  0
  129.1072  116.4332  132.9651 H   0  0  0  0  0  0  0  0  0  0  0  0
  131.4005  120.1940  131.4393 H   0  0  0  0  0  0  0  0  0  0  0  0
  129.7173  119.5830  131.7437 H   0  0  0  0  0  0  0  0  0  0  0  0
  131.1212  118.4374  133.8098 H   0  0  0  0  0  0  0  0  0  0  0  0
  131.9535  120.0330  133.6139 H   0  0  0  0  0  0  0  0  0  0  0  0
  129.2264  120.5567  137.4531 H   0  0  0  0  0  0  0  0  0  0  0  0
  129.2106  121.8590  136.2159 H   0  0  0  0  0  0  0  0  0  0  0  0
  127.9250  120.6044  136.2159 H   0  0  0  0  0  0  0  0  0  0  0  0
  130.7913  118.1414  135.2800 H   0  0  0  0  0  0  0  0  0  0  0  0
  131.0652  119.0030  136.8599 H   0  0  0  0  0  0  0  0  0  0  0  0
  129.4350  118.8837  138.6689 H   0  0  0  0  0  0  0  0  0  0  0  0
  127.6710  118.6020  140.2540 H   0  0  0  0  0  0  0  0  0  0  0  0
  126.6870  117.2210  140.3240 H   0  0  0  0  0  0  0  0  0  0  0  0
  127.0781  115.3543  136.0391 H   0  0  0  0  0  0  0  0  0  0  0  0
  134.0636  116.1059  129.3068 H   0  0  0  0  0  0  0  0  0  0  0  0
  136.4188  112.9185  127.4168 H   0  0  0  0  0  0  0  0  0  0  0  0
  137.4562  113.9895  128.4544 H   0  0  0  0  0  0  0  0  0  0  0  0
  136.2501  111.2938  129.2267 H   0  0  0  0  0  0  0  0  0  0  0  0
  137.9938  111.6835  128.9293 H   0  0  0  0  0  0  0  0  0  0  0  0
  135.1736  112.2175  131.0995 H   0  0  0  0  0  0  0  0  0  0  0  0
  136.1191  113.2307  132.2563 H   0  0  0  0  0  0  0  0  0  0  0  0
  134.6067  114.6014  130.8337 H   0  0  0  0  0  0  0  0  0  0  0  0
  136.3550  114.9855  130.5622 H   0  0  0  0  0  0  0  0  0  0  0  0
  131.2898  112.7770  129.5652 H   0  0  0  0  0  0  0  0  0  0  0  0
  129.6328  114.2058  130.8091 H   0  0  0  0  0  0  0  0  0  0  0  0
  1  2  1  0
  2  3  1  0
  3  4  1  0
  4  5  1  0
  5  6  1  0
  6  7  1  0
  7  8  1  0
  8  9  1  0
  9 10  2  0
  9 11  1  0
 11 12  1  0
 11 13  1  0
 13 14  1  0
 14 15  2  0
 15 16  1  0
 16 17  1  0
 16 18  2  0
 18 19  1  0
 18 20  1  0
 20 21  2  0
 21 22  1  0
  6 23  2  0
 23 24  1  0
 24 25  2  0
 25 26  1  0
 26 27  1  0
 27 28  2  0
 27 29  2  0
 27 30  1  0
 30 31  1  0
 31 32  1  0
 32 33  1  0
 33 34  1  0
 34 35  1  0
 26 36  2  0
 36 37  1  0
 37 38  2  0
 38  5  1  0
 21 14  1  0
 38 24  1  0
 35 30  1  0
  1 39  1  0
  1 40  1  0
  1 41  1  0
  2 42  1  0
  2 43  1  0
  3 44  1  0
  3 45  1  0
  4 46  1  0
  4 47  1  0
  7 48  1  0
  7 49  1  0
  8 50  1  0
  8 51  1  0
 12 52  1  0
 12 53  1  0
 12 54  1  0
 13 55  1  0
 13 56  1  0
 15 57  1  0
 17 58  1  0
 17 59  1  0
 20 60  1  0
 25 61  1  0
 31 62  1  0
 31 63  1  0
 32 64  1  0
 32 65  1  0
 34 66  1  0
 34 67  1  0
 35 68  1  0
 35 69  1  0
 36 70  1  0
 37 71  1  0
M  END
$$$$

     RDKit          3D

 71 74  0  0  0  0  0  0  0  0999 V2000
  132.8760  121.7270  131.5990 C   0  0  0  0  0  0  0  0  0  0  0  0
  131.9670  120.6570  131.0160 C   0  0  0  0  0  0  0  0  0  0  0  0
  131.9980  119.3420  131.7980 C   0  0  0  0  0  0  0  0  0  0  0  0
  130.6240  118.6840  131.9200 C   0  0  0  0  0  0  0  0  0  0  0  0
  130.7030  117.2360  131.8170 N   0  0  0  0  0  0  0  0  0  0  0  0
  129.9740  116.3230  132.5520 C   0  0  0  0  0  0  0  0  0  0  0  0
  128.9770  116.7120  133.5990 C   0  0  0  0  0  0  0  0  0  0  0  0
  128.8100  115.6300  134.6640 C   0  0  0  0  0  0  0  0  0  0  0  0
  129.1180  116.1680  136.0480 C   0  0  0  0  0  0  0  0  0  0  0  0
  130.2770  116.4140  136.3900 O   0  0  0  0  0  0  0  0  0  0  0  0
  128.0360  116.3700  136.9010 N   0  0  0  0  0  0  0  0  0  0  0  0
  127.4280  115.3150  137.7020 C   0  0  0  0  0  0  0  0  0  0  0  0
  127.6460  117.7430  137.2170 C   0  0  0  0  0  0  0  0  0  0  0  0
  128.5840  118.7630  136.6250 C   0  0  0  0  0  0  0  0  0  0  0  0
  128.2850  119.3920  135.4050 C   0  0  0  0  0  0  0  0  0  0  0  0
  129.1680  120.3130  134.8260 C   0  0  0  0  0  0  0  0  0  0  0  0
  128.7650  121.0090  133.6730 N   0  0  0  0  0  0  0  0  0  0  0  0
  130.3310  120.6600  135.5370 C   0  0  0  0  0  0  0  0  0  0  0  0
  131.4270  121.8440  134.9120 Cl  0  0  0  0  0  0  0  0  0  0  0  0
  130.6460  120.0430  136.7470 C   0  0  0  0  0  0  0  0  0  0  0  0
  129.7740  119.0970  137.2730 C   0  0  0  0  0  0  0  0  0  0  0  0
  130.0920  118.5050  138.4330 F   0  0  0  0  0  0  0  0  0  0  0  0
  130.2840  115.0910  132.2010 N   0  0  0  0  0  0  0  0  0  0  0  0
  131.2390  115.2040  131.2240 C   0  0  0  0  0  0  0  0  0  0  0  0
  131.9060  114.1930  130.5220 C   0  0  0  0  0  0  0  0  0  0  0  0
  132.8400  114.5780  129.5530 C   0  0  0  0  0  0  0  0  0  0  0  0
  133.7090  113.3340  128.6330 S   0  0  0  0  0  6  0  0  0  0  0  0
  133.3450  113.4500  127.2390 O   0  0  0  0  0  0  0  0  0  0  0  0
  133.5440  112.0840  129.3450 O   0  0  0  0  0  0  0  0  0  0  0  0
  135.3310  113.8250  128.7950 N   0  0  0  0  0  0  0  0  0  0  0  0
  136.3830  112.8470  128.3700 C   0  0  0  0  0  0  0  0  0  0  0  0
  136.7180  111.8400  129.4770 C   0  0  0  0  0  0  0  0  0  0  0  0
  137.0780  112.5030  130.6980 O   0  0  0  0  0  0  0  0  0  0  0  0
  135.9990  113.3320  131.1530 C   0  0  0  0  0  0  0  0  0  0  0  0
  135.6820  114.4190  130.1240 C   0  0  0  0  0  0  0  0  0  0  0  0
  133.1230  115.9240  129.2970 C   0  0  0  0  0  0  0  0  0  0  0  0
  132.4640  116.9380  129.9980 C   0  0  0  0  0  0  0  0  0  0  0  0
  131.5210  116.5390  130.9550 C   0  0  0  0  0  0  0  0  0  0  0  0
  132.8378  121.6820  132.6974 H   0  0  0  0  0  0  0  0  0  0  0  0
  133.9085  121.5551  131.2607 H   0  0  0  0  0  0  0  0  0  0  0  0
  132.5395  122.7181  131.2607 H   0  0  0  0  0  0  0  0  0  0  0  0
  130.9352  121.0383  131.0155 H   0  0  0  0  0  0  0  0  0  0  0  0
  132.3302  120.4399  130.0006 H   0  0  0  0  0  0  0  0  0  0  0  0
  132.6756  118.6447  131.2835 H   0  0  0  0  0  0  0  0  0  0  0  0
  132.3418  119.5744  132.8167 H   0  0  0  0  0  0  0  0  0  0  0  0
  130.1893  118.9475  132.8955 H   0  0  0  0  0  0  0  0  0  0  0  0
  129.9972  119.0499  131.0934 H   0  0  0  0  0  0  0  0  0  0  0  0
  129.3164  117.6386  134.0850 H   0  0  0  0  0  0  0  0  0  0  0  0
  128.0046  116.8535  133.1046 H   0  0  0  0  0  0  0  0  0  0  0  0
  127.7727  115.2645  134.6441 H   0  0  0  0  0  0  0  0  0  0  0  0
  129.5140  114.8140  134.4438 H   0  0  0  0  0  0  0  0  0  0  0  0
  127.5596  115.5434  138.7699 H   0  0  0  0  0  0  0  0  0  0  0  0
  126.3546  115.2511  137.4703 H   0  0  0  0  0  0  0  0  0  0  0  0
  127.9109  114.3542  137.4703 H   0  0  0  0  0  0  0  0  0  0  0  0
  126.6355  117.9221  136.8211 H   0  0  0  0  0  0  0  0  0  0  0  0
  127.6792  117.8553  138.3107 H   0  0  0  0  0  0  0  0  0  0  0  0
  127.3395  119.1569  134.8944 H   0  0  0  0  0  0  0  0  0  0  0  0
  128.9160  120.4770  132.8170 H   0  0  0  0  0  0  0  0  0  0  0  0
  127.8370  121.4150  133.7310 H   0  0  0  0  0  0  0  0  0  0  0  0
  131.5734  120.3018  137.2789 H   0  0  0  0  0  0  0  0  0  0  0  0
  131.7029  113.1312  130.7251 H   0  0  0  0  0  0  0  0  0  0  0  0
  136.0206  112.2974  127.4888 H   0  0  0  0  0  0  0  0  0  0  0  0
  137.2976  113.4132  128.1400 H   0  0  0  0  0  0  0  0  0  0  0  0
  135.8390  111.2047  129.6607 H   0  0  0  0  0  0  0  0  0  0  0  0
  137.5752  111.2351  129.1463 H   0  0  0  0  0  0  0  0  0  0  0  0
  135.1055  112.7093  131.3076 H   0  0  0  0  0  0  0  0  0  0  0  0
  136.2961  113.8135  132.0964 H   0  0  0  0  0  0  0  0  0  0  0  0
  134.8322  115.0170  130.4848 H   0  0  0  0  0  0  0  0  0  0  0  0
  136.5753  115.0484  129.9977 H   0  0  0  0  0  0  0  0  0  0  0  0
  133.8722  116.1872  128.5358 H   0  0  0  0  0  0  0  0  0  0  0  0
  132.6758  118.0004  129.8073 H   0  0  0  0  0  0  0  0  0  0  0  0
  1  2  1  0
  2  3  1  0
  3  4  1  0
  4  5  1  0
  5  6  1  0
  6  7  1  0
  7  8  1  0
  8  9  1  0
  9 10  2  0
  9 11  1  0
 11 12  1  0
 11 13  1  0
 13 14  1  0
 14 15  2  0
 15 16  1  0
 16 17  1  0
 16 18  2  0
 18 19  1  0
 18 20  1  0
 20 21  2  0
 21 22  1  0
  6 23  2  0
 23 24  1  0
 24 25  2  0
 25 26  1  0
 26 27  1  0
 27 28  2  0
 27 29  2  0
 27 30  1  0
 30 31  1  0
 31 32  1  0
 32 33  1  0
 33 34  1  0
 34 35  1  0
 26 36  2  0
 36 37  1  0
 37 38  2  0
 38  5  1  0
 21 14  1  0
 38 24  1  0
 35 30  1  0
  1 39  1  0
  1 40  1  0
  1 41  1  0
  2 42  1  0
  2 43  1  0
  3 44  1  0
  3 45  1  0
  4 46  1  0
  4 47  1  0
  7 48  1  0
  7 49  1  0
  8 50  1  0
  8 51  1  0
 12 52  1  0
 12 53  1  0
 12 54  1  0
 13 55  1  0
 13 56  1  0
 15 57  1  0
 17 58  1  0
 17 59  1  0
 20 60  1  0
 25 61  1  0
 31 62  1  0
 31 63  1  0
 32 64  1  0
 32 65  1  0
 34 66  1  0
 34 67  1  0
 35 68  1  0
 35 69  1  0
 36 70  1  0
 37 71  1  0
M  END
$$$$

     RDKit          3D

 71 74  0  0  0  0  0  0  0  0999 V2000
  126.9550  112.9770  131.4470 C   0  0  0  0  0  0  0  0  0  0  0  0
  126.9400  113.5380  132.8610 C   0  0  0  0  0  0  0  0  0  0  0  0
  128.0310  114.5800  133.1120 C   0  0  0  0  0  0  0  0  0  0  0  0
  127.9610  115.7660  132.1500 C   0  0  0  0  0  0  0  0  0  0  0  0
  129.2820  116.2690  131.8110 N   0  0  0  0  0  0  0  0  0  0  0  0
  129.8320  117.4650  132.2260 C   0  0  0  0  0  0  0  0  0  0  0  0
  129.1160  118.4460  133.0990 C   0  0  0  0  0  0  0  0  0  0  0  0
  129.7420  119.8380  133.0360 C   0  0  0  0  0  0  0  0  0  0  0  0
  129.2690  120.7080  134.1860 C   0  0  0  0  0  0  0  0  0  0  0  0
  128.1390  121.2000  134.1860 O   0  0  0  0  0  0  0  0  0  0  0  0
  130.1670  120.9150  135.2290 N   0  0  0  0  0  0  0  0  0  0  0  0
  131.4350  121.6180  135.0790 C   0  0  0  0  0  0  0  0  0  0  0  0
  129.7180  120.6550  136.5960 C   0  0  0  0  0  0  0  0  0  0  0  0
  129.2040  119.2500  136.7790 C   0  0  0  0  0  0  0  0  0  0  0  0
  127.8500  119.0130  137.0670 C   0  0  0  0  0  0  0  0  0  0  0  0
  127.3690  117.7140  137.2780 C   0  0  0  0  0  0  0  0  0  0  0  0
  125.9850  117.5190  137.4350 N   0  0  0  0  0  0  0  0  0  0  0  0
  128.2580  116.6370  137.1110 C   0  0  0  0  0  0  0  0  0  0  0  0
  127.7100  115.0050  137.2860 Cl  0  0  0  0  0  0  0  0  0  0  0  0
  129.6060  116.8550  136.8300 C   0  0  0  0  0  0  0  0  0  0  0  0
  130.0650  118.1570  136.6740 C   0  0  0  0  0  0  0  0  0  0  0  0
  131.3650  118.3540  136.4120 F   0  0  0  0  0  0  0  0  0  0  0  0
  131.0510  117.6070  131.7440 N   0  0  0  0  0  0  0  0  0  0  0  0
  131.2960  116.4850  130.9950 C   0  0  0  0  0  0  0  0  0  0  0  0
  132.4420  116.1450  130.2660 C   0  0  0  0  0  0  0  0  0  0  0  0
  132.4450  114.9200  129.5890 C   0  0  0  0  0  0  0  0  0  0  0  0
  133.8740  114.4400  128.6550 S   0  0  0  0  0  6  0  0  0  0  0  0
  134.9670  115.3240  128.9930 O   0  0  0  0  0  0  0  0  0  0  0  0
  133.4480  114.2720  127.2810 O   0  0  0  0  0  0  0  0  0  0  0  0
  134.2290  112.9010  129.2900 N   0  0  0  0  0  0  0  0  0  0  0  0
  134.4760  112.8150  130.7660 C   0  0  0  0  0  0  0  0  0  0  0  0
  135.9280  113.1510  131.1290 C   0  0  0  0  0  0  0  0  0  0  0  0
  136.8550  112.3420  130.3910 O   0  0  0  0  0  0  0  0  0  0  0  0
  136.6840  112.5450  128.9810 C   0  0  0  0  0  0  0  0  0  0  0  0
  135.2760  112.1350  128.5430 C   0  0  0  0  0  0  0  0  0  0  0  0
  131.3390  114.0620  129.6140 C   0  0  0  0  0  0  0  0  0  0  0  0
  130.1910  114.3980  130.3370 C   0  0  0  0  0  0  0  0  0  0  0  0
  130.2060  115.6210  131.0220 C   0  0  0  0  0  0  0  0  0  0  0  0
  126.9844  111.8782  131.4888 H   0  0  0  0  0  0  0  0  0  0  0  0
  126.0479  113.2996  130.9149 H   0  0  0  0  0  0  0  0  0  0  0  0
  127.8436  113.3476  130.9149 H   0  0  0  0  0  0  0  0  0  0  0  0
  125.9614  114.0076  133.0395 H   0  0  0  0  0  0  0  0  0  0  0  0
  127.1290  112.6982  133.5458 H   0  0  0  0  0  0  0  0  0  0  0  0
  127.9254  114.9566  134.1401 H   0  0  0  0  0  0  0  0  0  0  0  0
  129.0002  114.0849  132.9519 H   0  0  0  0  0  0  0  0  0  0  0  0
  127.4550  115.4458  131.2272 H   0  0  0  0  0  0  0  0  0  0  0  0
  127.4058  116.5752  132.6470 H   0  0  0  0  0  0  0  0  0  0  0  0
  128.0682  118.5135  132.7709 H   0  0  0  0  0  0  0  0  0  0  0  0
  129.1880  118.0898  134.1372 H   0  0  0  0  0  0  0  0  0  0  0  0
  130.8366  119.7412  133.0866 H   0  0  0  0  0  0  0  0  0  0  0  0
  129.4365  120.3136  132.0924 H   0  0  0  0  0  0  0  0  0  0  0  0
  131.8473  121.8466  136.0728 H   0  0  0  0  0  0  0  0  0  0  0  0
  132.1428  120.9835  134.5255 H   0  0  0  0  0  0  0  0  0  0  0  0
  131.2718  122.5545  134.5255 H   0  0  0  0  0  0  0  0  0  0  0  0
  130.5642  120.8128  137.2809 H   0  0  0  0  0  0  0  0  0  0  0  0
  128.8883  121.3444  136.8113 H   0  0  0  0  0  0  0  0  0  0  0  0
  127.1543  119.8628  137.1280 H   0  0  0  0  0  0  0  0  0  0  0  0
  125.7110  117.3940  138.4080 H   0  0  0  0  0  0  0  0  0  0  0  0
  125.4080  118.1940  136.9430 H   0  0  0  0  0  0  0  0  0  0  0  0
  130.2984  116.0058  136.7329 H   0  0  0  0  0  0  0  0  0  0  0  0
  133.3110  116.8182  130.2267 H   0  0  0  0  0  0  0  0  0  0  0  0
  133.8091  113.5236  131.2790 H   0  0  0  0  0  0  0  0  0  0  0  0
  134.2786  111.7802  131.0826 H   0  0  0  0  0  0  0  0  0  0  0  0
  136.1175  114.2103  130.9009 H   0  0  0  0  0  0  0  0  0  0  0  0
  136.0713  112.9496  132.2009 H   0  0  0  0  0  0  0  0  0  0  0  0
  136.8395  113.6087  128.7477 H   0  0  0  0  0  0  0  0  0  0  0  0
  137.4166  111.9256  128.4428 H   0  0  0  0  0  0  0  0  0  0  0  0
  135.1642  112.3317  127.4665 H   0  0  0  0  0  0  0  0  0  0  0  0
  135.1432  111.0646  128.7590 H   0  0  0  0  0  0  0  0  0  0  0  0
  131.3739  113.1131  129.0586 H   0  0  0  0  0  0  0  0  0  0  0  0
  129.3154  113.7329  130.3671 H   0  0  0  0  0  0  0  0  0  0  0  0
  1  2  1  0
  2  3  1  0
  3  4  1  0
  4  5  1  0
  5  6  1  0
  6  7  1  0
  7  8  1  0
  8  9  1  0
  9 10  2  0
  9 11  1  0
 11 12  1  0
 11 13  1  0
 13 14  1  0
 14 15  2  0
 15 16  1  0
 16 17  1  0
 16 18  2  0
 18 19  1  0
 18 20  1  0
 20 21  2  0
 21 22  1  0
  6 23  2  0
 23 24  1  0
 24 25  2  0
 25 26  1  0
 26 27  1  0
 27 28  2  0
 27 29  2  0
 27 30  1  0
 30 31  1  0
 31 32  1  0
 32 33  1  0
 33 34  1  0
 34 35  1  0
 26 36  2  0
 36 37  1  0
 37 38  2  0
 38  5  1  0
 21 14  1  0
 38 24  1  0
 35 30  1  0
  1 39  1  0
  1 40  1  0
  1 41  1  0
  2 42  1  0
  2 43  1  0
  3 44  1  0
  3 45  1  0
  4 46  1  0
  4 47  1  0
  7 48  1  0
  7 49  1  0
  8 50  1  0
  8 51  1  0
 12 52  1  0
 12 53  1  0
 12 54  1  0
 13 55  1  0
 13 56  1  0
 15 57  1  0
 17 58  1  0
 17 59  1  0
 20 60  1  0
 25 61  1  0
 31 62  1  0
 31 63  1  0
 32 64  1  0
 32 65  1  0
 34 66  1  0
 34 67  1  0
 35 68  1  0
 35 69  1  0
 36 70  1  0
 37 71  1  0
M  END
$$$$

     RDKit          3D

 71 74  0  0  0  0  0  0  0  0999 V2000
  132.6730  121.3890  131.5330 C   0  0  0  0  0  0  0  0  0  0  0  0
  131.9640  121.0460  132.8340 C   0  0  0  0  0  0  0  0  0  0  0  0
  131.0570  119.8190  132.7250 C   0  0  0  0  0  0  0  0  0  0  0  0
  131.0010  119.2360  131.3130 C   0  0  0  0  0  0  0  0  0  0  0  0
  130.9940  117.7820  131.3250 N   0  0  0  0  0  0  0  0  0  0  0  0
  130.1860  116.9760  132.1020 C   0  0  0  0  0  0  0  0  0  0  0  0
  129.1850  117.5040  133.0800 C   0  0  0  0  0  0  0  0  0  0  0  0
  129.4120  116.9590  134.4880 C   0  0  0  0  0  0  0  0  0  0  0  0
  128.5810  115.7150  134.7380 C   0  0  0  0  0  0  0  0  0  0  0  0
  129.0770  114.7140  135.2600 O   0  0  0  0  0  0  0  0  0  0  0  0
  127.2440  115.7630  134.3520 N   0  0  0  0  0  0  0  0  0  0  0  0
  126.7700  115.4010  133.0220 C   0  0  0  0  0  0  0  0  0  0  0  0
  126.2270  115.9300  135.3890 C   0  0  0  0  0  0  0  0  0  0  0  0
  126.7870  116.5100  136.6620 C   0  0  0  0  0  0  0  0  0  0  0  0
  127.4960  117.7220  136.6480 C   0  0  0  0  0  0  0  0  0  0  0  0
  128.0550  118.2500  137.8200 C   0  0  0  0  0  0  0  0  0  0  0  0
  128.6430  119.5270  137.7760 N   0  0  0  0  0  0  0  0  0  0  0  0
  127.8170  117.5810  139.0340 C   0  0  0  0  0  0  0  0  0  0  0  0
  128.4170  118.2190  140.5260 Cl  0  0  0  0  0  0  0  0  0  0  0  0
  127.1180  116.3750  139.0650 C   0  0  0  0  0  0  0  0  0  0  0  0
  126.6180  115.8500  137.8800 C   0  0  0  0  0  0  0  0  0  0  0  0
  125.9550  114.6850  137.9220 F   0  0  0  0  0  0  0  0  0  0  0  0
  130.4300  115.7030  131.8570 N   0  0  0  0  0  0  0  0  0  0  0  0
  131.4200  115.6820  130.9090 C   0  0  0  0  0  0  0  0  0  0  0  0
  132.0430  114.5800  130.3110 C   0  0  0  0  0  0  0  0  0  0  0  0
  133.0280  114.8310  129.3490 C   0  0  0  0  0  0  0  0  0  0  0  0
  133.8460  113.4690  128.5580 S   0  0  0  0  0  6  0  0  0  0  0  0
  133.5560  113.5130  127.1420 O   0  0  0  0  0  0  0  0  0  0  0  0
  133.5570  112.2860  129.3420 O   0  0  0  0  0  0  0  0  0  0  0  0
  135.4900  113.8560  128.7690 N   0  0  0  0  0  0  0  0  0  0  0  0
  136.4900  112.8020  128.4000 C   0  0  0  0  0  0  0  0  0  0  0  0
  136.7180  111.7990  129.5380 C   0  0  0  0  0  0  0  0  0  0  0  0
  137.0780  112.4620  130.7590 O   0  0  0  0  0  0  0  0  0  0  0  0
  136.0410  113.3690  131.1590 C   0  0  0  0  0  0  0  0  0  0  0  0
  135.8330  114.4530  130.0990 C   0  0  0  0  0  0  0  0  0  0  0  0
  133.4030  116.1340  129.0000 C   0  0  0  0  0  0  0  0  0  0  0  0
  132.7870  117.2370  129.5970 C   0  0  0  0  0  0  0  0  0  0  0  0
  131.7920  116.9720  130.5490 C   0  0  0  0  0  0  0  0  0  0  0  0
  133.6426  121.8581  131.7564 H   0  0  0  0  0  0  0  0  0  0  0  0
  132.8358  120.4700  130.9508 H   0  0  0  0  0  0  0  0  0  0  0  0
  132.0535  122.0870  130.9508 H   0  0  0  0  0  0  0  0  0  0  0  0
  132.7242  120.8506  133.6046 H   0  0  0  0  0  0  0  0  0  0  0  0
  131.3232  121.9024  133.0908 H   0  0  0  0  0  0  0  0  0  0  0  0
  131.4335  119.0439  133.4087 H   0  0  0  0  0  0  0  0  0  0  0  0
  130.0382  120.1409  132.9868 H   0  0  0  0  0  0  0  0  0  0  0  0
  130.0854  119.5917  130.8178 H   0  0  0  0  0  0  0  0  0  0  0  0
  131.8997  119.5674  130.7722 H   0  0  0  0  0  0  0  0  0  0  0  0
  129.2616  118.6010  133.1081 H   0  0  0  0  0  0  0  0  0  0  0  0
  128.1868  117.1809  132.7495 H   0  0  0  0  0  0  0  0  0  0  0  0
  130.4765  116.7090  134.6082 H   0  0  0  0  0  0  0  0  0  0  0  0
  129.1092  117.7300  135.2118 H   0  0  0  0  0  0  0  0  0  0  0  0
  125.8987  114.7356  133.1118 H   0  0  0  0  0  0  0  0  0  0  0  0
  126.4817  116.3109  132.4753 H   0  0  0  0  0  0  0  0  0  0  0  0
  127.5719  114.8833  132.4753 H   0  0  0  0  0  0  0  0  0  0  0  0
  125.4443  116.6033  135.0096 H   0  0  0  0  0  0  0  0  0  0  0  0
  125.8255  114.9335  135.6254 H   0  0  0  0  0  0  0  0  0  0  0  0
  127.6149  118.2671  135.7000 H   0  0  0  0  0  0  0  0  0  0  0  0
  128.1780  120.1540  137.1230 H   0  0  0  0  0  0  0  0  0  0  0  0
  128.8030  119.9460  138.6860 H   0  0  0  0  0  0  0  0  0  0  0  0
  126.9642  115.8454  140.0168 H   0  0  0  0  0  0  0  0  0  0  0  0
  131.7676  113.5517  130.5879 H   0  0  0  0  0  0  0  0  0  0  0  0
  136.1231  112.2588  127.5166 H   0  0  0  0  0  0  0  0  0  0  0  0
  137.4476  113.3017  128.1921 H   0  0  0  0  0  0  0  0  0  0  0  0
  135.7926  111.2271  129.7012 H   0  0  0  0  0  0  0  0  0  0  0  0
  137.5445  111.1326  129.2504 H   0  0  0  0  0  0  0  0  0  0  0  0
  135.1034  112.8095  131.2923 H   0  0  0  0  0  0  0  0  0  0  0  0
  136.3359  113.8495  132.1035 H   0  0  0  0  0  0  0  0  0  0  0  0
  135.0126  115.1129  130.4177 H   0  0  0  0  0  0  0  0  0  0  0  0
  136.7700  115.0194  129.9936 H   0  0  0  0  0  0  0  0  0  0  0  0
  134.1905  116.2910  128.2482 H   0  0  0  0  0  0  0  0  0  0  0  0
  133.0697  118.2665  129.3322 H   0  0  0  0  0  0  0  0  0  0  0  0
  1  2  1  0
  2  3  1  0
  3  4  1  0
  4  5  1  0
  5  6  1  0
  6  7  1  0
  7  8  1  0
  8  9  1  0
  9 10  2  0
  9 11  1  0
 11 12  1  0
 11 13  1  0
 13 14  1  0
 14 15  2  0
 15 16  1  0
 16 17  1  0
 16 18  2  0
 18 19  1  0
 18 20  1  0
 20 21  2  0
 21 22  1  0
  6 23  2  0
 23 24  1  0
 24 25  2  0
 25 26  1  0
 26 27  1  0
 27 28  2  0
 27 29  2  0
 27 30  1  0
 30 31  1  0
 31 32  1  0
 32 33  1  0
 33 34  1  0
 34 35  1  0
 26 36  2  0
 36 37  1  0
 37 38  2  0
 38  5  1  0
 21 14  1  0
 38 24  1  0
 35 30  1  0
  1 39  1  0
  1 40  1  0
  1 41  1  0
  2 42  1  0
  2 43  1  0
  3 44  1  0
  3 45  1  0
  4 46  1  0
  4 47  1  0
  7 48  1  0
  7 49  1  0
  8 50  1  0
  8 51  1  0
 12 52  1  0
 12 53  1  0
 12 54  1  0
 13 55  1  0
 13 56  1  0
 15 57  1  0
 17 58  1  0
 17 59  1  0
 20 60  1  0
 25 61  1  0
 31 62  1  0
 31 63  1  0
 32 64  1  0
 32 65  1  0
 34 66  1  0
 34 67  1  0
 35 68  1  0
 35 69  1  0
 36 70  1  0
 37 71  1  0
M  END
$$$$

     RDKit          3D

 71 74  0  0  0  0  0  0  0  0999 V2000
  132.8590  122.0040  131.0280 C   0  0  0  0  0  0  0  0  0  0  0  0
  132.5930  121.6400  132.4800 C   0  0  0  0  0  0  0  0  0  0  0  0
  131.4870  120.5970  132.6520 C   0  0  0  0  0  0  0  0  0  0  0  0
  131.1500  119.8610  131.3560 C   0  0  0  0  0  0  0  0  0  0  0  0
  131.0110  118.4290  131.5650 N   0  0  0  0  0  0  0  0  0  0  0  0
  130.2030  117.8140  132.5000 C   0  0  0  0  0  0  0  0  0  0  0  0
  129.3410  118.5620  133.4680 C   0  0  0  0  0  0  0  0  0  0  0  0
  129.9110  118.5370  134.8850 C   0  0  0  0  0  0  0  0  0  0  0  0
  128.8900  119.0190  135.8970 C   0  0  0  0  0  0  0  0  0  0  0  0
  128.3720  120.1330  135.7940 O   0  0  0  0  0  0  0  0  0  0  0  0
  128.5710  118.1480  136.9350 N   0  0  0  0  0  0  0  0  0  0  0  0
  129.1040  118.2670  138.2870 C   0  0  0  0  0  0  0  0  0  0  0  0
  127.4540  117.2230  136.7490 C   0  0  0  0  0  0  0  0  0  0  0  0
  127.6860  116.2530  135.6190 C   0  0  0  0  0  0  0  0  0  0  0  0
  126.7690  116.1510  134.5600 C   0  0  0  0  0  0  0  0  0  0  0  0
  126.9540  115.2260  133.5240 C   0  0  0  0  0  0  0  0  0  0  0  0
  126.0780  115.2520  132.4250 N   0  0  0  0  0  0  0  0  0  0  0  0
  128.1310  114.4540  133.5220 C   0  0  0  0  0  0  0  0  0  0  0  0
  128.4550  113.3450  132.2330 Cl  0  0  0  0  0  0  0  0  0  0  0  0
  129.0500  114.5400  134.5660 C   0  0  0  0  0  0  0  0  0  0  0  0
  128.8140  115.4320  135.6050 C   0  0  0  0  0  0  0  0  0  0  0  0
  129.7010  115.4990  136.6080 F   0  0  0  0  0  0  0  0  0  0  0  0
  130.3080  116.5030  132.4130 N   0  0  0  0  0  0  0  0  0  0  0  0
  131.2070  116.2600  131.4070 C   0  0  0  0  0  0  0  0  0  0  0  0
  131.6750  115.0340  130.9200 C   0  0  0  0  0  0  0  0  0  0  0  0
  132.5930  115.0580  129.8630 C   0  0  0  0  0  0  0  0  0  0  0  0
  133.2120  113.5310  129.2070 S   0  0  0  0  0  6  0  0  0  0  0  0
  132.5550  113.2680  127.9460 O   0  0  0  0  0  0  0  0  0  0  0  0
  133.1790  112.5610  130.2820 O   0  0  0  0  0  0  0  0  0  0  0  0
  134.8410  113.9050  128.8820 N   0  0  0  0  0  0  0  0  0  0  0  0
  135.6830  112.8180  128.2860 C   0  0  0  0  0  0  0  0  0  0  0  0
  136.2520  111.8760  129.3540 C   0  0  0  0  0  0  0  0  0  0  0  0
  136.9660  112.6000  130.3670 O   0  0  0  0  0  0  0  0  0  0  0  0
  136.0990  113.5430  131.0130 C   0  0  0  0  0  0  0  0  0  0  0  0
  135.5730  114.5690  130.0070 C   0  0  0  0  0  0  0  0  0  0  0  0
  133.0530  116.2610  129.3150 C   0  0  0  0  0  0  0  0  0  0  0  0
  132.5930  117.4880  129.8010 C   0  0  0  0  0  0  0  0  0  0  0  0
  131.6640  117.4490  130.8490 C   0  0  0  0  0  0  0  0  0  0  0  0
  133.5075  122.8915  130.9854 H   0  0  0  0  0  0  0  0  0  0  0  0
  133.3561  121.1620  130.5241 H   0  0  0  0  0  0  0  0  0  0  0  0
  131.9058  122.2219  130.5241 H   0  0  0  0  0  0  0  0  0  0  0  0
  133.5207  121.2394  132.9146 H   0  0  0  0  0  0  0  0  0  0  0  0
  132.2575  122.5560  132.9882 H   0  0  0  0  0  0  0  0  0  0  0  0
  131.8151  119.8588  133.3986 H   0  0  0  0  0  0  0  0  0  0  0  0
  130.5798  121.1308  132.9714 H   0  0  0  0  0  0  0  0  0  0  0  0
  130.2032  120.2558  130.9589 H   0  0  0  0  0  0  0  0  0  0  0  0
  131.9759  120.0231  130.6478 H   0  0  0  0  0  0  0  0  0  0  0  0
  129.2609  119.6078  133.1365 H   0  0  0  0  0  0  0  0  0  0  0  0
  128.3557  118.0734  133.4911 H   0  0  0  0  0  0  0  0  0  0  0  0
  130.2050  117.5069  135.1351 H   0  0  0  0  0  0  0  0  0  0  0  0
  130.7809  119.2092  134.9217 H   0  0  0  0  0  0  0  0  0  0  0  0
  128.2995  118.0874  139.0154 H   0  0  0  0  0  0  0  0  0  0  0  0
  129.9030  117.5251  138.4328 H   0  0  0  0  0  0  0  0  0  0  0  0
  129.5116  119.2782  138.4328 H   0  0  0  0  0  0  0  0  0  0  0  0
  127.3103  116.6529  137.6787 H   0  0  0  0  0  0  0  0  0  0  0  0
  126.5653  117.8205  136.4977 H   0  0  0  0  0  0  0  0  0  0  0  0
  125.8885  116.8101  134.5436 H   0  0  0  0  0  0  0  0  0  0  0  0
  126.0660  116.1520  131.9490 H   0  0  0  0  0  0  0  0  0  0  0  0
  126.1780  114.4660  131.7900 H   0  0  0  0  0  0  0  0  0  0  0  0
  129.9513  113.9094  134.5676 H   0  0  0  0  0  0  0  0  0  0  0  0
  131.3328  114.0827  131.3535 H   0  0  0  0  0  0  0  0  0  0  0  0
  135.0648  112.2323  127.5898 H   0  0  0  0  0  0  0  0  0  0  0  0
  136.5295  113.2918  127.7674 H   0  0  0  0  0  0  0  0  0  0  0  0
  135.4232  111.3266  129.8243 H   0  0  0  0  0  0  0  0  0  0  0  0
  136.9533  111.1835  128.8654 H   0  0  0  0  0  0  0  0  0  0  0  0
  135.2491  113.0058  131.4591 H   0  0  0  0  0  0  0  0  0  0  0  0
  136.6677  114.0707  131.7928 H   0  0  0  0  0  0  0  0  0  0  0  0
  134.8876  115.2575  130.5230 H   0  0  0  0  0  0  0  0  0  0  0  0
  136.4313  115.1144  129.5876 H   0  0  0  0  0  0  0  0  0  0  0  0
  133.7841  116.2405  128.4934 H   0  0  0  0  0  0  0  0  0  0  0  0
  132.9445  118.4414  129.3797 H   0  0  0  0  0  0  0  0  0  0  0  0
  1  2  1  0
  2  3  1  0
  3  4  1  0
  4  5  1  0
  5  6  1  0
  6  7  1  0
  7  8  1  0
  8  9  1  0
  9 10  2  0
  9 11  1  0
 11 12  1  0
 11 13  1  0
 13 14  1  0
 14 15  2  0
 15 16  1  0
 16 17  1  0
 16 18  2  0
 18 19  1  0
 18 20  1  0
 20 21  2  0
 21 22  1  0
  6 23  2  0
 23 24  1  0
 24 25  2  0
 25 26  1  0
 26 27  1  0
 27 28  2  0
 27 29  2  0
 27 30  1  0
 30 31  1  0
 31 32  1  0
 32 33  1  0
 33 34  1  0
 34 35  1  0
 26 36  2  0
 36 37  1  0
 37 38  2  0
 38  5  1  0
 21 14  1  0
 38 24  1  0
 35 30  1  0
  1 39  1  0
  1 40  1  0
  1 41  1  0
  2 42  1  0
  2 43  1  0
  3 44  1  0
  3 45  1  0
  4 46  1  0
  4 47  1  0
  7 48  1  0
  7 49  1  0
  8 50  1  0
  8 51  1  0
 12 52  1  0
 12 53  1  0
 12 54  1  0
 13 55  1  0
 13 56  1  0
 15 57  1  0
 17 58  1  0
 17 59  1  0
 20 60  1  0
 25 61  1  0
 31 62  1  0
 31 63  1  0
 32 64  1  0
 32 65  1  0
 34 66  1  0
 34 67  1  0
 35 68  1  0
 35 69  1  0
 36 70  1  0
 37 71  1  0
M  END
$$$$

     RDKit          3D

 71 74  0  0  0  0  0  0  0  0999 V2000
  126.7220  113.1390  131.4700 C   0  0  0  0  0  0  0  0  0  0  0  0
  126.5020  114.2740  132.4590 C   0  0  0  0  0  0  0  0  0  0  0  0
  127.7950  114.9820  132.8680 C   0  0  0  0  0  0  0  0  0  0  0  0
  127.9710  116.3450  132.1980 C   0  0  0  0  0  0  0  0  0  0  0  0
  129.3380  116.5600  131.7540 N   0  0  0  0  0  0  0  0  0  0  0  0
  130.1050  117.6840  131.9880 C   0  0  0  0  0  0  0  0  0  0  0  0
  129.6140  118.8790  132.7430 C   0  0  0  0  0  0  0  0  0  0  0  0
  130.6580  119.4080  133.7250 C   0  0  0  0  0  0  0  0  0  0  0  0
  130.0650  120.4590  134.6440 C   0  0  0  0  0  0  0  0  0  0  0  0
  129.8940  121.6170  134.2570 O   0  0  0  0  0  0  0  0  0  0  0  0
  129.7280  120.0510  135.9320 N   0  0  0  0  0  0  0  0  0  0  0  0
  128.7050  120.6980  136.7450 C   0  0  0  0  0  0  0  0  0  0  0  0
  130.2240  118.7600  136.4050 C   0  0  0  0  0  0  0  0  0  0  0  0
  129.1340  117.9010  136.9930 C   0  0  0  0  0  0  0  0  0  0  0  0
  128.1960  117.2630  136.1650 C   0  0  0  0  0  0  0  0  0  0  0  0
  127.1560  116.4940  136.7030 C   0  0  0  0  0  0  0  0  0  0  0  0
  126.3220  115.7730  135.8300 N   0  0  0  0  0  0  0  0  0  0  0  0
  127.1190  116.3020  138.0970 C   0  0  0  0  0  0  0  0  0  0  0  0
  125.9030  115.3050  138.8180 Cl  0  0  0  0  0  0  0  0  0  0  0  0
  128.0400  116.9310  138.9340 C   0  0  0  0  0  0  0  0  0  0  0  0
  129.0310  117.7280  138.3740 C   0  0  0  0  0  0  0  0  0  0  0  0
  129.9060  118.3340  139.1900 F   0  0  0  0  0  0  0  0  0  0  0  0
  131.3030  117.5460  131.4550 N   0  0  0  0  0  0  0  0  0  0  0  0
  131.3130  116.3130  130.8560 C   0  0  0  0  0  0  0  0  0  0  0  0
  132.3430  115.6860  130.1460 C   0  0  0  0  0  0  0  0  0  0  0  0
  132.1010  114.4040  129.6400 C   0  0  0  0  0  0  0  0  0  0  0  0
  133.3760  113.5650  128.7350 S   0  0  0  0  0  6  0  0  0  0  0  0
  133.6230  114.2860  127.5060 O   0  0  0  0  0  0  0  0  0  0  0  0
  133.0310  112.1590  128.7180 O   0  0  0  0  0  0  0  0  0  0  0  0
  134.7340  113.7650  129.7430 N   0  0  0  0  0  0  0  0  0  0  0  0
  136.0310  114.1100  129.0770 C   0  0  0  0  0  0  0  0  0  0  0  0
  136.7650  112.8660  128.5620 C   0  0  0  0  0  0  0  0  0  0  0  0
  136.9490  111.8960  129.6030 O   0  0  0  0  0  0  0  0  0  0  0  0
  135.6800  111.4840  130.1330 C   0  0  0  0  0  0  0  0  0  0  0  0
  134.9410  112.6750  130.7480 C   0  0  0  0  0  0  0  0  0  0  0  0
  130.8680  113.7640  129.8130 C   0  0  0  0  0  0  0  0  0  0  0  0
  129.8350  114.3870  130.5180 C   0  0  0  0  0  0  0  0  0  0  0  0
  130.0950  115.6650  131.0320 C   0  0  0  0  0  0  0  0  0  0  0  0
  126.9033  112.2036  132.0197 H   0  0  0  0  0  0  0  0  0  0  0  0
  125.8291  113.0255  130.8376 H   0  0  0  0  0  0  0  0  0  0  0  0
  127.5926  113.3673  130.8376 H   0  0  0  0  0  0  0  0  0  0  0  0
  125.8305  115.0132  131.9979 H   0  0  0  0  0  0  0  0  0  0  0  0
  126.0712  113.8325  133.3698 H   0  0  0  0  0  0  0  0  0  0  0  0
  127.7849  115.1267  133.9584 H   0  0  0  0  0  0  0  0  0  0  0  0
  128.6328  114.3470  132.5442 H   0  0  0  0  0  0  0  0  0  0  0  0
  127.3015  116.4019  131.3271 H   0  0  0  0  0  0  0  0  0  0  0  0
  127.7276  117.1217  132.9379 H   0  0  0  0  0  0  0  0  0  0  0  0
  129.3670  119.6750  132.0251 H   0  0  0  0  0  0  0  0  0  0  0  0
  128.7294  118.5740  133.3212 H   0  0  0  0  0  0  0  0  0  0  0  0
  131.0351  118.5720  134.3324 H   0  0  0  0  0  0  0  0  0  0  0  0
  131.4744  119.8693  133.1499 H   0  0  0  0  0  0  0  0  0  0  0  0
  128.9365  120.5516  137.8104 H   0  0  0  0  0  0  0  0  0  0  0  0
  128.6835  121.7743  136.5190 H   0  0  0  0  0  0  0  0  0  0  0  0
  127.7233  120.2562  136.5190 H   0  0  0  0  0  0  0  0  0  0  0  0
  130.6763  118.2242  135.5574 H   0  0  0  0  0  0  0  0  0  0  0  0
  130.9591  118.9561  137.1995 H   0  0  0  0  0  0  0  0  0  0  0  0
  128.2796  117.3692  135.0733 H   0  0  0  0  0  0  0  0  0  0  0  0
  126.7770  115.5430  134.9490 H   0  0  0  0  0  0  0  0  0  0  0  0
  125.8550  114.9800  136.2560 H   0  0  0  0  0  0  0  0  0  0  0  0
  127.9827  116.7979  140.0244 H   0  0  0  0  0  0  0  0  0  0  0  0
  133.3112  116.1845  129.9907 H   0  0  0  0  0  0  0  0  0  0  0  0
  135.8265  114.7781  128.2274 H   0  0  0  0  0  0  0  0  0  0  0  0
  136.6751  114.5981  129.8232 H   0  0  0  0  0  0  0  0  0  0  0  0
  136.1754  112.4130  127.7514 H   0  0  0  0  0  0  0  0  0  0  0  0
  137.7563  113.1754  128.1991 H   0  0  0  0  0  0  0  0  0  0  0  0
  135.0700  111.0597  129.3219 H   0  0  0  0  0  0  0  0  0  0  0  0
  135.8503  110.7298  130.9154 H   0  0  0  0  0  0  0  0  0  0  0  0
  133.9613  112.3371  131.1169 H   0  0  0  0  0  0  0  0  0  0  0  0
  135.5508  113.0739  131.5720 H   0  0  0  0  0  0  0  0  0  0  0  0
  130.7109  112.7609  129.3898 H   0  0  0  0  0  0  0  0  0  0  0  0
  128.8612  113.8965  130.6632 H   0  0  0  0  0  0  0  0  0  0  0  0
  1  2  1  0
  2  3  1  0
  3  4  1  0
  4  5  1  0
  5  6  1  0
  6  7  1  0
  7  8  1  0
  8  9  1  0
  9 10  2  0
  9 11  1  0
 11 12  1  0
 11 13  1  0
 13 14  1  0
 14 15  2  0
 15 16  1  0
 16 17  1  0
 16 18  2  0
 18 19  1  0
 18 20  1  0
 20 21  2  0
 21 22  1  0
  6 23  2  0
 23 24  1  0
 24 25  2  0
 25 26  1  0
 26 27  1  0
 27 28  2  0
 27 29  2  0
 27 30  1  0
 30 31  1  0
 31 32  1  0
 32 33  1  0
 33 34  1  0
 34 35  1  0
 26 36  2  0
 36 37  1  0
 37 38  2  0
 38  5  1  0
 21 14  1  0
 38 24  1  0
 35 30  1  0
  1 39  1  0
  1 40  1  0
  1 41  1  0
  2 42  1  0
  2 43  1  0
  3 44  1  0
  3 45  1  0
  4 46  1  0
  4 47  1  0
  7 48  1  0
  7 49  1  0
  8 50  1  0
  8 51  1  0
 12 52  1  0
 12 53  1  0
 12 54  1  0
 13 55  1  0
 13 56  1  0
 15 57  1  0
 17 58  1  0
 17 59  1  0
 20 60  1  0
 25 61  1  0
 31 62  1  0
 31 63  1  0
 32 64  1  0
 32 65  1  0
 34 66  1  0
 34 67  1  0
 35 68  1  0
 35 69  1  0
 36 70  1  0
 37 71  1  0
M  END
$$$$

     RDKit          3D

 71 74  0  0  0  0  0  0  0  0999 V2000
  129.2440  121.5050  135.2780 C   0  0  0  0  0  0  0  0  0  0  0  0
  130.7330  121.1950  135.2510 C   0  0  0  0  0  0  0  0  0  0  0  0
  131.3170  121.1500  133.8380 C   0  0  0  0  0  0  0  0  0  0  0  0
  130.3100  120.6850  132.7860 C   0  0  0  0  0  0  0  0  0  0  0  0
  130.4790  119.2800  132.4540 N   0  0  0  0  0  0  0  0  0  0  0  0
  129.7770  118.2220  132.9960 C   0  0  0  0  0  0  0  0  0  0  0  0
  128.7200  118.3800  134.0430 C   0  0  0  0  0  0  0  0  0  0  0  0
  129.1800  117.8700  135.4070 C   0  0  0  0  0  0  0  0  0  0  0  0
  128.0030  117.4180  136.2510 C   0  0  0  0  0  0  0  0  0  0  0  0
  127.3260  118.2320  136.8830 O   0  0  0  0  0  0  0  0  0  0  0  0
  127.7310  116.0530  136.2730 N   0  0  0  0  0  0  0  0  0  0  0  0
  128.1750  115.1550  137.3310 C   0  0  0  0  0  0  0  0  0  0  0  0
  126.7370  115.5270  135.3380 C   0  0  0  0  0  0  0  0  0  0  0  0
  127.3330  115.1640  134.0020 C   0  0  0  0  0  0  0  0  0  0  0  0
  128.6140  114.5940  133.9190 C   0  0  0  0  0  0  0  0  0  0  0  0
  129.1940  114.2880  132.6800 C   0  0  0  0  0  0  0  0  0  0  0  0
  130.4210  113.6020  132.6550 N   0  0  0  0  0  0  0  0  0  0  0  0
  128.4280  114.4860  131.5170 C   0  0  0  0  0  0  0  0  0  0  0  0
  129.0580  114.0610  129.9630 Cl  0  0  0  0  0  0  0  0  0  0  0  0
  127.1570  115.0550  131.5820 C   0  0  0  0  0  0  0  0  0  0  0  0
  126.6270  115.3930  132.8210 C   0  0  0  0  0  0  0  0  0  0  0  0
  125.4070  115.9470  132.8700 F   0  0  0  0  0  0  0  0  0  0  0  0
  130.1740  117.0820  132.4650 N   0  0  0  0  0  0  0  0  0  0  0  0
  131.1570  117.4040  131.5660 C   0  0  0  0  0  0  0  0  0  0  0  0
  131.9100  116.5580  130.7430 C   0  0  0  0  0  0  0  0  0  0  0  0
  132.8560  117.1450  129.8940 C   0  0  0  0  0  0  0  0  0  0  0  0
  133.8320  116.1170  128.8280 S   0  0  0  0  0  6  0  0  0  0  0  0
  135.2180  116.5150  128.9420 O   0  0  0  0  0  0  0  0  0  0  0  0
  133.1680  116.0870  127.5410 O   0  0  0  0  0  0  0  0  0  0  0  0
  133.6660  114.5820  129.5460 N   0  0  0  0  0  0  0  0  0  0  0  0
  134.9210  113.9140  130.0190 C   0  0  0  0  0  0  0  0  0  0  0  0
  135.6360  113.1600  128.8900 C   0  0  0  0  0  0  0  0  0  0  0  0
  134.7570  112.2310  128.2400 O   0  0  0  0  0  0  0  0  0  0  0  0
  133.6280  112.9180  127.6800 C   0  0  0  0  0  0  0  0  0  0  0  0
  132.8210  113.6140  128.7780 C   0  0  0  0  0  0  0  0  0  0  0  0
  133.0690  118.5290  129.8730 C   0  0  0  0  0  0  0  0  0  0  0  0
  132.3230  119.3770  130.6970 C   0  0  0  0  0  0  0  0  0  0  0  0
  131.3700  118.7780  131.5310 C   0  0  0  0  0  0  0  0  0  0  0  0
  128.9031  121.5760  136.3214 H   0  0  0  0  0  0  0  0  0  0  0  0
  129.0591  122.4609  134.7660 H   0  0  0  0  0  0  0  0  0  0  0  0
  128.6930  120.7023  134.7660 H   0  0  0  0  0  0  0  0  0  0  0  0
  131.2617  121.9721  135.8225 H   0  0  0  0  0  0  0  0  0  0  0  0
  130.8652  120.1950  135.6898 H   0  0  0  0  0  0  0  0  0  0  0  0
  131.6621  122.1594  133.5698 H   0  0  0  0  0  0  0  0  0  0  0  0
  132.1409  120.4212  133.8473 H   0  0  0  0  0  0  0  0  0  0  0  0
  129.2929  120.8379  133.1760 H   0  0  0  0  0  0  0  0  0  0  0  0
  130.4781  121.2728  131.8715 H   0  0  0  0  0  0  0  0  0  0  0  0
  128.4648  119.4464  134.1309 H   0  0  0  0  0  0  0  0  0  0  0  0
  127.8479  117.7842  133.7357 H   0  0  0  0  0  0  0  0  0  0  0  0
  129.8632  117.0205  135.2603 H   0  0  0  0  0  0  0  0  0  0  0  0
  129.6889  118.6919  135.9319 H   0  0  0  0  0  0  0  0  0  0  0  0
  127.9530  115.6041  138.3103 H   0  0  0  0  0  0  0  0  0  0  0  0
  127.6485  114.1934  137.2407 H   0  0  0  0  0  0  0  0  0  0  0  0
  129.2587  114.9895  137.2407 H   0  0  0  0  0  0  0  0  0  0  0  0
  126.2820  114.6269  135.7770 H   0  0  0  0  0  0  0  0  0  0  0  0
  125.9905  116.3165  135.1664 H   0  0  0  0  0  0  0  0  0  0  0  0
  129.1724  114.3839  134.8432 H   0  0  0  0  0  0  0  0  0  0  0  0
  130.3090  112.5910  132.6260 H   0  0  0  0  0  0  0  0  0  0  0  0
  131.0820  113.9500  131.9680 H   0  0  0  0  0  0  0  0  0  0  0  0
  126.5802  115.2343  130.6627 H   0  0  0  0  0  0  0  0  0  0  0  0
  131.7632  115.4680  130.7627 H   0  0  0  0  0  0  0  0  0  0  0  0
  135.6010  114.6802  130.4196 H   0  0  0  0  0  0  0  0  0  0  0  0
  134.6438  113.1820  130.7918 H   0  0  0  0  0  0  0  0  0  0  0  0
  135.9994  113.8869  128.1487 H   0  0  0  0  0  0  0  0  0  0  0  0
  136.4728  112.5956  129.3274 H   0  0  0  0  0  0  0  0  0  0  0  0
  133.9833  113.6705  126.9606 H   0  0  0  0  0  0  0  0  0  0  0  0
  132.9814  112.1846  127.1760 H   0  0  0  0  0  0  0  0  0  0  0  0
  131.9834  114.1576  128.3166 H   0  0  0  0  0  0  0  0  0  0  0  0
  132.4518  112.8475  129.4752 H   0  0  0  0  0  0  0  0  0  0  0  0
  133.8305  118.9529  129.2018 H   0  0  0  0  0  0  0  0  0  0  0  0
  132.4775  120.4661  130.6908 H   0  0  0  0  0  0  0  0  0  0  0  0
  1  2  1  0
  2  3  1  0
  3  4  1  0
  4  5  1  0
  5  6  1  0
  6  7  1  0
  7  8  1  0
  8  9  1  0
  9 10  2  0
  9 11  1  0
 11 12  1  0
 11 13  1  0
 13 14  1  0
 14 15  2  0
 15 16  1  0
 16 17  1  0
 16 18  2  0
 18 19  1  0
 18 20  1  0
 20 21  2  0
 21 22  1  0
  6 23  2  0
 23 24  1  0
 24 25  2  0
 25 26  1  0
 26 27  1  0
 27 28  2  0
 27 29  2  0
 27 30  1  0
 30 31  1  0
 31 32  1  0
 32 33  1  0
 33 34  1  0
 34 35  1  0
 26 36  2  0
 36 37  1  0
 37 38  2  0
 38  5  1  0
 21 14  1  0
 38 24  1  0
 35 30  1  0
  1 39  1  0
  1 40  1  0
  1 41  1  0
  2 42  1  0
  2 43  1  0
  3 44  1  0
  3 45  1  0
  4 46  1  0
  4 47  1  0
  7 48  1  0
  7 49  1  0
  8 50  1  0
  8 51  1  0
 12 52  1  0
 12 53  1  0
 12 54  1  0
 13 55  1  0
 13 56  1  0
 15 57  1  0
 17 58  1  0
 17 59  1  0
 20 60  1  0
 25 61  1  0
 31 62  1  0
 31 63  1  0
 32 64  1  0
 32 65  1  0
 34 66  1  0
 34 67  1  0
 35 68  1  0
 35 69  1  0
 36 70  1  0
 37 71  1  0
M  END
$$$$

     RDKit          3D

 71 74  0  0  0  0  0  0  0  0999 V2000
  132.7230  122.7710  131.1820 C   0  0  0  0  0  0  0  0  0  0  0  0
  133.1990  121.3470  131.4260 C   0  0  0  0  0  0  0  0  0  0  0  0
  132.1020  120.4250  131.9640 C   0  0  0  0  0  0  0  0  0  0  0  0
  131.2930  119.7460  130.8590 C   0  0  0  0  0  0  0  0  0  0  0  0
  131.2280  118.3050  131.0410 N   0  0  0  0  0  0  0  0  0  0  0  0
  130.4130  117.6290  131.9260 C   0  0  0  0  0  0  0  0  0  0  0  0
  129.4630  118.3100  132.8610 C   0  0  0  0  0  0  0  0  0  0  0  0
  130.1410  118.7340  134.1620 C   0  0  0  0  0  0  0  0  0  0  0  0
  129.5450  120.0220  134.6980 C   0  0  0  0  0  0  0  0  0  0  0  0
  129.3330  120.9810  133.9540 O   0  0  0  0  0  0  0  0  0  0  0  0
  129.2530  120.0620  136.0590 N   0  0  0  0  0  0  0  0  0  0  0  0
  128.2320  120.9230  136.6440 C   0  0  0  0  0  0  0  0  0  0  0  0
  129.8010  119.0140  136.9190 C   0  0  0  0  0  0  0  0  0  0  0  0
  128.7540  118.0290  137.3710 C   0  0  0  0  0  0  0  0  0  0  0  0
  127.9410  117.3660  136.4370 C   0  0  0  0  0  0  0  0  0  0  0  0
  126.9380  116.4770  136.8480 C   0  0  0  0  0  0  0  0  0  0  0  0
  126.2390  115.7440  135.8730 N   0  0  0  0  0  0  0  0  0  0  0  0
  126.8160  116.1970  138.2210 C   0  0  0  0  0  0  0  0  0  0  0  0
  125.6470  115.0540  138.7880 Cl  0  0  0  0  0  0  0  0  0  0  0  0
  127.6120  116.8490  139.1620 C   0  0  0  0  0  0  0  0  0  0  0  0
  128.5660  117.7620  138.7280 C   0  0  0  0  0  0  0  0  0  0  0  0
  129.3190  118.3890  139.6430 F   0  0  0  0  0  0  0  0  0  0  0  0
  130.5990  116.3280  131.8260 N   0  0  0  0  0  0  0  0  0  0  0  0
  131.5580  116.1540  130.8620 C   0  0  0  0  0  0  0  0  0  0  0  0
  132.1190  114.9650  130.3810 C   0  0  0  0  0  0  0  0  0  0  0  0
  133.0840  115.0600  129.3720 C   0  0  0  0  0  0  0  0  0  0  0  0
  133.8220  113.5830  128.7250 S   0  0  0  0  0  6  0  0  0  0  0  0
  133.5210  113.4930  127.3140 O   0  0  0  0  0  0  0  0  0  0  0  0
  133.4820  112.5050  129.6310 O   0  0  0  0  0  0  0  0  0  0  0  0
  135.4870  113.9040  128.8870 N   0  0  0  0  0  0  0  0  0  0  0  0
  136.4330  112.8290  128.4440 C   0  0  0  0  0  0  0  0  0  0  0  0
  136.6660  111.7780  129.5370 C   0  0  0  0  0  0  0  0  0  0  0  0
  137.0940  112.3840  130.7650 O   0  0  0  0  0  0  0  0  0  0  0  0
  136.1070  113.3120  131.2360 C   0  0  0  0  0  0  0  0  0  0  0  0
  135.9000  114.4400  130.2220 C   0  0  0  0  0  0  0  0  0  0  0  0
  133.4990  116.2970  128.8640 C   0  0  0  0  0  0  0  0  0  0  0  0
  132.9460  117.4870  129.3440 C   0  0  0  0  0  0  0  0  0  0  0  0
  131.9700  117.3770  130.3440 C   0  0  0  0  0  0  0  0  0  0  0  0
  132.5555  123.2720  132.1469 H   0  0  0  0  0  0  0  0  0  0  0  0
  133.4865  123.3201  130.6114 H   0  0  0  0  0  0  0  0  0  0  0  0
  131.7828  122.7506  130.6114 H   0  0  0  0  0  0  0  0  0  0  0  0
  133.5666  120.9341  130.4750 H   0  0  0  0  0  0  0  0  0  0  0  0
  133.9885  121.3942  132.1905 H   0  0  0  0  0  0  0  0  0  0  0  0
  132.5717  119.6462  132.5827 H   0  0  0  0  0  0  0  0  0  0  0  0
  131.4056  121.0482  132.5442 H   0  0  0  0  0  0  0  0  0  0  0  0
  130.2706  120.1517  130.8665 H   0  0  0  0  0  0  0  0  0  0  0  0
  131.7924  119.9459  129.8995 H   0  0  0  0  0  0  0  0  0  0  0  0
  129.0571  119.2040  132.3650 H   0  0  0  0  0  0  0  0  0  0  0  0
  128.6652  117.5956  133.1124 H   0  0  0  0  0  0  0  0  0  0  0  0
  130.0092  117.9390  134.9107 H   0  0  0  0  0  0  0  0  0  0  0  0
  131.2088  118.9029  133.9588 H   0  0  0  0  0  0  0  0  0  0  0  0
  128.2933  120.8713  137.7411 H   0  0  0  0  0  0  0  0  0  0  0  0
  128.3952  121.9602  136.3161 H   0  0  0  0  0  0  0  0  0  0  0  0
  127.2372  120.5870  136.3161 H   0  0  0  0  0  0  0  0  0  0  0  0
  130.5781  118.4710  136.3611 H   0  0  0  0  0  0  0  0  0  0  0  0
  130.2108  119.5000  137.8167 H   0  0  0  0  0  0  0  0  0  0  0  0
  128.0942  117.5477  135.3630 H   0  0  0  0  0  0  0  0  0  0  0  0
  126.7170  114.8850  135.6070 H   0  0  0  0  0  0  0  0  0  0  0  0
  125.2550  115.6050  136.0780 H   0  0  0  0  0  0  0  0  0  0  0  0
  127.4865  116.6432  140.2353 H   0  0  0  0  0  0  0  0  0  0  0  0
  131.8114  113.9883  130.7829 H   0  0  0  0  0  0  0  0  0  0  0  0
  136.0139  112.3313  127.5571 H   0  0  0  0  0  0  0  0  0  0  0  0
  137.4001  113.3016  128.2172 H   0  0  0  0  0  0  0  0  0  0  0  0
  135.7272  111.2332  129.7152 H   0  0  0  0  0  0  0  0  0  0  0  0
  137.4565  111.0936  129.1955 H   0  0  0  0  0  0  0  0  0  0  0  0
  135.1550  112.7818  131.3862 H   0  0  0  0  0  0  0  0  0  0  0  0
  136.4541  113.7475  132.1846 H   0  0  0  0  0  0  0  0  0  0  0  0
  135.1166  115.1167  130.5941 H   0  0  0  0  0  0  0  0  0  0  0  0
  136.8528  114.9761  130.1006 H   0  0  0  0  0  0  0  0  0  0  0  0
  134.2685  116.3323  128.0787 H   0  0  0  0  0  0  0  0  0  0  0  0
  133.2623  118.4660  128.9547 H   0  0  0  0  0  0  0  0  0  0  0  0
  1  2  1  0
  2  3  1  0
  3  4  1  0
  4  5  1  0
  5  6  1  0
  6  7  1  0
  7  8  1  0
  8  9  1  0
  9 10  2  0
  9 11  1  0
 11 12  1  0
 11 13  1  0
 13 14  1  0
 14 15  2  0
 15 16  1  0
 16 17  1  0
 16 18  2  0
 18 19  1  0
 18 20  1  0
 20 21  2  0
 21 22  1  0
  6 23  2  0
 23 24  1  0
 24 25  2  0
 25 26  1  0
 26 27  1  0
 27 28  2  0
 27 29  2  0
 27 30  1  0
 30 31  1  0
 31 32  1  0
 32 33  1  0
 33 34  1  0
 34 35  1  0
 26 36  2  0
 36 37  1  0
 37 38  2  0
 38  5  1  0
 21 14  1  0
 38 24  1  0
 35 30  1  0
  1 39  1  0
  1 40  1  0
  1 41  1  0
  2 42  1  0
  2 43  1  0
  3 44  1  0
  3 45  1  0
  4 46  1  0
  4 47  1  0
  7 48  1  0
  7 49  1  0
  8 50  1  0
  8 51  1  0
 12 52  1  0
 12 53  1  0
 12 54  1  0
 13 55  1  0
 13 56  1  0
 15 57  1  0
 17 58  1  0
 17 59  1  0
 20 60  1  0
 25 61  1  0
 31 62  1  0
 31 63  1  0
 32 64  1  0
 32 65  1  0
 34 66  1  0
 34 67  1  0
 35 68  1  0
 35 69  1  0
 36 70  1  0
 37 71  1  0
M  END
$$$$

