
     RDKit          3D

 59 62  0  0  0  0  0  0  0  0999 V2000
  131.3940  112.5870  127.2600 N   0  0  0  0  0  0  0  0  0  0  0  0
  132.4540  112.9070  128.0640 C   0  0  0  0  0  0  0  0  0  0  0  0
  133.4620  112.2130  128.0760 O   0  0  0  0  0  0  0  0  0  0  0  0
  132.3140  114.0970  128.9440 C   0  0  0  0  0  0  0  0  0  0  0  0
  133.2600  115.1220  128.9670 C   0  0  0  0  0  0  0  0  0  0  0  0
  133.0850  116.2210  129.8160 C   0  0  0  0  0  0  0  0  0  0  0  0
  131.9720  116.3130  130.6620 C   0  0  0  0  0  0  0  0  0  0  0  0
  131.7760  117.4130  131.5360 N   0  0  0  0  0  0  0  0  0  0  0  0
  131.2870  118.6680  131.2310 C   0  0  0  0  0  0  0  0  0  0  0  0
  130.9680  119.0850  130.1260 O   0  0  0  0  0  0  0  0  0  0  0  0
  131.1400  119.6000  132.3810 C   0  0  0  0  0  0  0  0  0  0  0  0
  131.8540  120.8110  132.4320 C   0  0  0  0  0  0  0  0  0  0  0  0
  132.7440  121.2740  131.3010 C   0  0  0  0  0  0  0  0  0  0  0  0
  132.0590  121.6930  130.2030 F   0  0  0  0  0  0  0  0  0  0  0  0
  133.6400  120.3360  130.8970 F   0  0  0  0  0  0  0  0  0  0  0  0
  133.5050  122.3520  131.6620 F   0  0  0  0  0  0  0  0  0  0  0  0
  131.7140  121.6290  133.5740 C   0  0  0  0  0  0  0  0  0  0  0  0
  130.8710  121.2690  134.6280 C   0  0  0  0  0  0  0  0  0  0  0  0
  130.1500  120.0750  134.5690 C   0  0  0  0  0  0  0  0  0  0  0  0
  129.1850  119.6860  135.6560 C   0  0  0  0  0  0  0  0  0  0  0  0
  130.1020  118.8670  136.9590 S   0  0  0  0  0  6  0  0  0  0  0  0
  130.2870  119.7720  138.0770 O   0  0  0  0  0  0  0  0  0  0  0  0
  131.2420  118.1950  136.3570 O   0  0  0  0  0  0  0  0  0  0  0  0
  128.9670  117.6080  137.4980 C   0  0  0  0  0  0  0  0  0  0  0  0
  128.2330  117.8150  138.6710 C   0  0  0  0  0  0  0  0  0  0  0  0
  127.3430  116.8320  139.1020 C   0  0  0  0  0  0  0  0  0  0  0  0
  127.1970  115.6530  138.3690 C   0  0  0  0  0  0  0  0  0  0  0  0
  127.9440  115.4480  137.2080 C   0  0  0  0  0  0  0  0  0  0  0  0
  128.8380  116.4250  136.7680 C   0  0  0  0  0  0  0  0  0  0  0  0
  130.3010  119.2510  133.4480 C   0  0  0  0  0  0  0  0  0  0  0  0
  129.6120  118.1000  133.4150 F   0  0  0  0  0  0  0  0  0  0  0  0
  131.0070  115.2730  130.6490 C   0  0  0  0  0  0  0  0  0  0  0  0
  129.8090  115.2820  131.5060 C   0  0  0  0  0  0  0  0  0  0  0  0
  128.6320  115.9280  131.0930 C   0  0  0  0  0  0  0  0  0  0  0  0
  127.5050  115.9500  131.9180 C   0  0  0  0  0  0  0  0  0  0  0  0
  127.5330  115.3150  133.1570 C   0  0  0  0  0  0  0  0  0  0  0  0
  128.6890  114.6630  133.5780 C   0  0  0  0  0  0  0  0  0  0  0  0
  129.8210  114.6480  132.7590 C   0  0  0  0  0  0  0  0  0  0  0  0
  131.2020  114.1730  129.7890 C   0  0  0  0  0  0  0  0  0  0  0  0
  131.4650  111.7060  126.7690 H   0  0  0  0  0  0  0  0  0  0  0  0
  130.4670  112.9550  127.4210 H   0  0  0  0  0  0  0  0  0  0  0  0
  134.1453  115.0664  128.3165 H   0  0  0  0  0  0  0  0  0  0  0  0
  133.8343  117.0264  129.8190 H   0  0  0  0  0  0  0  0  0  0  0  0
  132.0810  117.2610  132.4930 H   0  0  0  0  0  0  0  0  0  0  0  0
  132.2808  122.5698  133.6351 H   0  0  0  0  0  0  0  0  0  0  0  0
  130.7752  121.9264  135.5047 H   0  0  0  0  0  0  0  0  0  0  0  0
  128.6937  120.5852  136.0561 H   0  0  0  0  0  0  0  0  0  0  0  0
  128.4147  119.0113  135.2542 H   0  0  0  0  0  0  0  0  0  0  0  0
  128.3568  118.7437  139.2473 H   0  0  0  0  0  0  0  0  0  0  0  0
  126.7560  116.9855  140.0195 H   0  0  0  0  0  0  0  0  0  0  0  0
  126.4898  114.8817  138.7081 H   0  0  0  0  0  0  0  0  0  0  0  0
  127.8278  114.5141  136.6385 H   0  0  0  0  0  0  0  0  0  0  0  0
  129.4337  116.2650  135.8572 H   0  0  0  0  0  0  0  0  0  0  0  0
  128.5975  116.4213  130.1104 H   0  0  0  0  0  0  0  0  0  0  0  0
  126.5935  116.4700  131.5882 H   0  0  0  0  0  0  0  0  0  0  0  0
  126.6425  115.3285  133.8026 H   0  0  0  0  0  0  0  0  0  0  0  0
  128.7111  114.1595  134.5558 H   0  0  0  0  0  0  0  0  0  0  0  0
  130.7318  114.1338  133.0996 H   0  0  0  0  0  0  0  0  0  0  0  0
  130.4640  113.3573  129.7824 H   0  0  0  0  0  0  0  0  0  0  0  0
  1  2  1  0
  2  3  2  0
  2  4  1  0
  4  5  2  0
  5  6  1  0
  6  7  2  0
  7  8  1  0
  8  9  1  0
  9 10  2  0
  9 11  1  0
 11 12  2  0
 12 13  1  0
 13 14  1  0
 13 15  1  0
 13 16  1  0
 12 17  1  0
 17 18  2  0
 18 19  1  0
 19 20  1  0
 20 21  1  0
 21 22  2  0
 21 23  2  0
 21 24  1  0
 24 25  2  0
 25 26  1  0
 26 27  2  0
 27 28  1  0
 28 29  2  0
 19 30  2  0
 30 31  1  0
  7 32  1  0
 32 33  1  0
 33 34  2  0
 34 35  1  0
 35 36  2  0
 36 37  1  0
 37 38  2  0
 32 39  2  0
 39  4  1  0
 30 11  1  0
 38 33  1  0
 29 24  1  0
  1 40  1  0
  1 41  1  0
  5 42  1  0
  6 43  1  0
  8 44  1  0
 17 45  1  0
 18 46  1  0
 20 47  1  0
 20 48  1  0
 25 49  1  0
 26 50  1  0
 27 51  1  0
 28 52  1  0
 29 53  1  0
 34 54  1  0
 35 55  1  0
 36 56  1  0
 37 57  1  0
 38 58  1  0
 39 59  1  0
M  END
$$$$

     RDKit          3D

 59 62  0  0  0  0  0  0  0  0999 V2000
  134.2660  112.7000  127.4620 N   0  0  0  0  0  0  0  0  0  0  0  0
  132.9850  112.8810  127.9050 C   0  0  0  0  0  0  0  0  0  0  0  0
  132.0900  112.1210  127.5600 O   0  0  0  0  0  0  0  0  0  0  0  0
  132.7210  114.0520  128.7820 C   0  0  0  0  0  0  0  0  0  0  0  0
  133.5770  115.1510  128.8350 C   0  0  0  0  0  0  0  0  0  0  0  0
  133.2870  116.2280  129.6800 C   0  0  0  0  0  0  0  0  0  0  0  0
  132.1460  116.2250  130.4930 C   0  0  0  0  0  0  0  0  0  0  0  0
  131.8340  117.3010  131.3620 N   0  0  0  0  0  0  0  0  0  0  0  0
  131.3340  118.5450  131.0350 C   0  0  0  0  0  0  0  0  0  0  0  0
  131.1040  118.9730  129.9110 O   0  0  0  0  0  0  0  0  0  0  0  0
  131.0510  119.4500  132.1810 C   0  0  0  0  0  0  0  0  0  0  0  0
  131.7500  120.6610  132.3430 C   0  0  0  0  0  0  0  0  0  0  0  0
  132.7640  121.1500  131.3330 C   0  0  0  0  0  0  0  0  0  0  0  0
  133.6190  120.1830  130.9060 F   0  0  0  0  0  0  0  0  0  0  0  0
  133.5090  122.1960  131.7760 F   0  0  0  0  0  0  0  0  0  0  0  0
  132.1630  121.6060  130.1910 F   0  0  0  0  0  0  0  0  0  0  0  0
  131.4750  121.4510  133.4790 C   0  0  0  0  0  0  0  0  0  0  0  0
  130.5160  121.0660  134.4190 C   0  0  0  0  0  0  0  0  0  0  0  0
  129.8110  119.8730  134.2490 C   0  0  0  0  0  0  0  0  0  0  0  0
  128.7270  119.4590  135.2070 C   0  0  0  0  0  0  0  0  0  0  0  0
  129.4990  118.9120  136.7290 S   0  0  0  0  0  6  0  0  0  0  0  0
  129.4010  119.9540  137.7340 O   0  0  0  0  0  0  0  0  0  0  0  0
  130.7850  118.3240  136.3990 O   0  0  0  0  0  0  0  0  0  0  0  0
  128.4280  117.5920  137.2510 C   0  0  0  0  0  0  0  0  0  0  0  0
  127.9710  116.6730  136.3010 C   0  0  0  0  0  0  0  0  0  0  0  0
  127.1290  115.6360  136.7020 C   0  0  0  0  0  0  0  0  0  0  0  0
  126.7430  115.5290  138.0390 C   0  0  0  0  0  0  0  0  0  0  0  0
  127.1890  116.4590  138.9790 C   0  0  0  0  0  0  0  0  0  0  0  0
  128.0320  117.5000  138.5870 C   0  0  0  0  0  0  0  0  0  0  0  0
  130.0950  119.0770  133.1340 C   0  0  0  0  0  0  0  0  0  0  0  0
  129.4180  117.9250  132.9940 F   0  0  0  0  0  0  0  0  0  0  0  0
  131.2720  115.1090  130.4500 C   0  0  0  0  0  0  0  0  0  0  0  0
  130.0520  115.0150  131.2710 C   0  0  0  0  0  0  0  0  0  0  0  0
  130.0720  114.3760  132.5210 C   0  0  0  0  0  0  0  0  0  0  0  0
  128.9100  114.2730  133.2880 C   0  0  0  0  0  0  0  0  0  0  0  0
  127.7160  114.8210  132.8240 C   0  0  0  0  0  0  0  0  0  0  0  0
  127.6810  115.4670  131.5910 C   0  0  0  0  0  0  0  0  0  0  0  0
  128.8410  115.5620  130.8180 C   0  0  0  0  0  0  0  0  0  0  0  0
  131.5820  114.0320  129.5940 C   0  0  0  0  0  0  0  0  0  0  0  0
  134.3940  111.9750  126.7680 H   0  0  0  0  0  0  0  0  0  0  0  0
  134.9550  113.4380  127.4910 H   0  0  0  0  0  0  0  0  0  0  0  0
  134.4827  115.1716  128.2110 H   0  0  0  0  0  0  0  0  0  0  0  0
  133.9669  117.0923  129.7064 H   0  0  0  0  0  0  0  0  0  0  0  0
  132.0550  117.1410  132.3410 H   0  0  0  0  0  0  0  0  0  0  0  0
  132.0276  122.3904  133.6278 H   0  0  0  0  0  0  0  0  0  0  0  0
  130.3163  121.7029  135.2933 H   0  0  0  0  0  0  0  0  0  0  0  0
  128.0655  120.3136  135.4119 H   0  0  0  0  0  0  0  0  0  0  0  0
  128.1280  118.6452  134.7724 H   0  0  0  0  0  0  0  0  0  0  0  0
  128.2728  116.7672  135.2474 H   0  0  0  0  0  0  0  0  0  0  0  0
  126.7693  114.9029  135.9650 H   0  0  0  0  0  0  0  0  0  0  0  0
  126.0834  114.7068  138.3536 H   0  0  0  0  0  0  0  0  0  0  0  0
  126.8759  116.3715  140.0299 H   0  0  0  0  0  0  0  0  0  0  0  0
  128.3807  118.2400  139.3224 H   0  0  0  0  0  0  0  0  0  0  0  0
  131.0135  113.9519  132.9002 H   0  0  0  0  0  0  0  0  0  0  0  0
  128.9372  113.7585  134.2599 H   0  0  0  0  0  0  0  0  0  0  0  0
  126.8020  114.7434  133.4311 H   0  0  0  0  0  0  0  0  0  0  0  0
  126.7395  115.9028  131.2253 H   0  0  0  0  0  0  0  0  0  0  0  0
  128.8050  116.0711  129.8435 H   0  0  0  0  0  0  0  0  0  0  0  0
  130.9145  113.1582  129.5642 H   0  0  0  0  0  0  0  0  0  0  0  0
  1  2  1  0
  2  3  2  0
  2  4  1  0
  4  5  2  0
  5  6  1  0
  6  7  2  0
  7  8  1  0
  8  9  1  0
  9 10  2  0
  9 11  1  0
 11 12  2  0
 12 13  1  0
 13 14  1  0
 13 15  1  0
 13 16  1  0
 12 17  1  0
 17 18  2  0
 18 19  1  0
 19 20  1  0
 20 21  1  0
 21 22  2  0
 21 23  2  0
 21 24  1  0
 24 25  2  0
 25 26  1  0
 26 27  2  0
 27 28  1  0
 28 29  2  0
 19 30  2  0
 30 31  1  0
  7 32  1  0
 32 33  1  0
 33 34  2  0
 34 35  1  0
 35 36  2  0
 36 37  1  0
 37 38  2  0
 32 39  2  0
 39  4  1  0
 30 11  1  0
 38 33  1  0
 29 24  1  0
  1 40  1  0
  1 41  1  0
  5 42  1  0
  6 43  1  0
  8 44  1  0
 17 45  1  0
 18 46  1  0
 20 47  1  0
 20 48  1  0
 25 49  1  0
 26 50  1  0
 27 51  1  0
 28 52  1  0
 29 53  1  0
 34 54  1  0
 35 55  1  0
 36 56  1  0
 37 57  1  0
 38 58  1  0
 39 59  1  0
M  END
$$$$

     RDKit          3D

 59 62  0  0  0  0  0  0  0  0999 V2000
  132.3640  112.0720  127.1830 N   0  0  0  0  0  0  0  0  0  0  0  0
  133.3740  112.9100  127.5680 C   0  0  0  0  0  0  0  0  0  0  0  0
  134.5200  112.7270  127.1810 O   0  0  0  0  0  0  0  0  0  0  0  0
  133.0300  114.0170  128.4990 C   0  0  0  0  0  0  0  0  0  0  0  0
  133.8140  115.1650  128.6130 C   0  0  0  0  0  0  0  0  0  0  0  0
  133.4510  116.1780  129.5080 C   0  0  0  0  0  0  0  0  0  0  0  0
  132.3080  116.0610  130.3100 C   0  0  0  0  0  0  0  0  0  0  0  0
  131.9230  117.0700  131.2280 N   0  0  0  0  0  0  0  0  0  0  0  0
  131.4750  118.3480  130.9550 C   0  0  0  0  0  0  0  0  0  0  0  0
  131.3680  118.8690  129.8520 O   0  0  0  0  0  0  0  0  0  0  0  0
  131.0890  119.1640  132.1370 C   0  0  0  0  0  0  0  0  0  0  0  0
  131.6050  120.4590  132.3280 C   0  0  0  0  0  0  0  0  0  0  0  0
  132.5120  121.1250  131.3180 C   0  0  0  0  0  0  0  0  0  0  0  0
  131.8760  121.5030  130.1770 F   0  0  0  0  0  0  0  0  0  0  0  0
  133.5800  120.3650  130.9630 F   0  0  0  0  0  0  0  0  0  0  0  0
  133.0540  122.2830  131.8080 F   0  0  0  0  0  0  0  0  0  0  0  0
  131.2430  121.1640  133.4960 C   0  0  0  0  0  0  0  0  0  0  0  0
  130.3730  120.6110  134.4390 C   0  0  0  0  0  0  0  0  0  0  0  0
  129.8480  119.3320  134.2400 C   0  0  0  0  0  0  0  0  0  0  0  0
  128.8600  118.7320  135.2030 C   0  0  0  0  0  0  0  0  0  0  0  0
  129.7040  117.4850  136.1730 S   0  0  0  0  0  6  0  0  0  0  0  0
  130.7770  118.0950  136.9350 O   0  0  0  0  0  0  0  0  0  0  0  0
  129.9660  116.3420  135.3150 O   0  0  0  0  0  0  0  0  0  0  0  0
  128.4570  116.9970  137.3430 C   0  0  0  0  0  0  0  0  0  0  0  0
  127.5350  116.0100  136.9790 C   0  0  0  0  0  0  0  0  0  0  0  0
  126.5520  115.6230  137.8890 C   0  0  0  0  0  0  0  0  0  0  0  0
  126.4900  116.2260  139.1470 C   0  0  0  0  0  0  0  0  0  0  0  0
  127.4040  117.2210  139.4980 C   0  0  0  0  0  0  0  0  0  0  0  0
  128.3910  117.6150  138.5940 C   0  0  0  0  0  0  0  0  0  0  0  0
  130.2210  118.6220  133.0930 C   0  0  0  0  0  0  0  0  0  0  0  0
  129.7180  117.3890  132.9260 F   0  0  0  0  0  0  0  0  0  0  0  0
  131.5080  114.8940  130.2050 C   0  0  0  0  0  0  0  0  0  0  0  0
  130.2930  114.6820  131.0110 C   0  0  0  0  0  0  0  0  0  0  0  0
  130.3550  114.0180  132.2470 C   0  0  0  0  0  0  0  0  0  0  0  0
  129.1980  113.8020  132.9980 C   0  0  0  0  0  0  0  0  0  0  0  0
  127.9670  114.2610  132.5340 C   0  0  0  0  0  0  0  0  0  0  0  0
  127.8900  114.9300  131.3150 C   0  0  0  0  0  0  0  0  0  0  0  0
  129.0450  115.1380  130.5570 C   0  0  0  0  0  0  0  0  0  0  0  0
  131.8920  113.8830  129.3000 C   0  0  0  0  0  0  0  0  0  0  0  0
  132.6450  111.2570  126.6550 H   0  0  0  0  0  0  0  0  0  0  0  0
  131.4880  112.0190  127.6840 H   0  0  0  0  0  0  0  0  0  0  0  0
  134.7195  115.2744  127.9982 H   0  0  0  0  0  0  0  0  0  0  0  0
  134.0738  117.0816  129.5831 H   0  0  0  0  0  0  0  0  0  0  0  0
  132.0400  116.8280  132.2080 H   0  0  0  0  0  0  0  0  0  0  0  0
  131.6544  122.1697  133.6674 H   0  0  0  0  0  0  0  0  0  0  0  0
  130.1014  121.1830  135.3384 H   0  0  0  0  0  0  0  0  0  0  0  0
  128.4654  119.5153  135.8669 H   0  0  0  0  0  0  0  0  0  0  0  0
  128.0217  118.2801  134.6526 H   0  0  0  0  0  0  0  0  0  0  0  0
  127.5850  115.5435  135.9841 H   0  0  0  0  0  0  0  0  0  0  0  0
  125.8258  114.8432  137.6161 H   0  0  0  0  0  0  0  0  0  0  0  0
  125.7169  115.9153  139.8651 H   0  0  0  0  0  0  0  0  0  0  0  0
  127.3460  117.6952  140.4889 H   0  0  0  0  0  0  0  0  0  0  0  0
  129.1092  118.4035  138.8634 H   0  0  0  0  0  0  0  0  0  0  0  0
  131.3248  113.6646  132.6272 H   0  0  0  0  0  0  0  0  0  0  0  0
  129.2584  113.2684  133.9580 H   0  0  0  0  0  0  0  0  0  0  0  0
  127.0572  114.0952  133.1297 H   0  0  0  0  0  0  0  0  0  0  0  0
  126.9191  115.2949  130.9487 H   0  0  0  0  0  0  0  0  0  0  0  0
  128.9759  115.6648  129.5939 H   0  0  0  0  0  0  0  0  0  0  0  0
  131.2835  112.9699  129.2227 H   0  0  0  0  0  0  0  0  0  0  0  0
  1  2  1  0
  2  3  2  0
  2  4  1  0
  4  5  2  0
  5  6  1  0
  6  7  2  0
  7  8  1  0
  8  9  1  0
  9 10  2  0
  9 11  1  0
 11 12  2  0
 12 13  1  0
 13 14  1  0
 13 15  1  0
 13 16  1  0
 12 17  1  0
 17 18  2  0
 18 19  1  0
 19 20  1  0
 20 21  1  0
 21 22  2  0
 21 23  2  0
 21 24  1  0
 24 25  2  0
 25 26  1  0
 26 27  2  0
 27 28  1  0
 28 29  2  0
 19 30  2  0
 30 31  1  0
  7 32  1  0
 32 33  1  0
 33 34  2  0
 34 35  1  0
 35 36  2  0
 36 37  1  0
 37 38  2  0
 32 39  2  0
 39  4  1  0
 30 11  1  0
 38 33  1  0
 29 24  1  0
  1 40  1  0
  1 41  1  0
  5 42  1  0
  6 43  1  0
  8 44  1  0
 17 45  1  0
 18 46  1  0
 20 47  1  0
 20 48  1  0
 25 49  1  0
 26 50  1  0
 27 51  1  0
 28 52  1  0
 29 53  1  0
 34 54  1  0
 35 55  1  0
 36 56  1  0
 37 57  1  0
 38 58  1  0
 39 59  1  0
M  END
$$$$

     RDKit          3D

 59 62  0  0  0  0  0  0  0  0999 V2000
  132.3440  112.0500  127.1890 N   0  0  0  0  0  0  0  0  0  0  0  0
  133.3620  112.8920  127.5460 C   0  0  0  0  0  0  0  0  0  0  0  0
  134.4990  112.7090  127.1340 O   0  0  0  0  0  0  0  0  0  0  0  0
  133.0370  114.0040  128.4770 C   0  0  0  0  0  0  0  0  0  0  0  0
  133.8370  115.1410  128.5870 C   0  0  0  0  0  0  0  0  0  0  0  0
  133.4920  116.1600  129.4830 C   0  0  0  0  0  0  0  0  0  0  0  0
  132.3510  116.0590  130.2900 C   0  0  0  0  0  0  0  0  0  0  0  0
  131.9840  117.0740  131.2100 N   0  0  0  0  0  0  0  0  0  0  0  0
  131.5030  118.3390  130.9370 C   0  0  0  0  0  0  0  0  0  0  0  0
  131.3440  118.8430  129.8330 O   0  0  0  0  0  0  0  0  0  0  0  0
  131.1470  119.1640  132.1220 C   0  0  0  0  0  0  0  0  0  0  0  0
  131.6900  120.4500  132.3030 C   0  0  0  0  0  0  0  0  0  0  0  0
  132.5950  121.0980  131.2790 C   0  0  0  0  0  0  0  0  0  0  0  0
  131.9480  121.4900  130.1490 F   0  0  0  0  0  0  0  0  0  0  0  0
  133.6400  120.3160  130.9070 F   0  0  0  0  0  0  0  0  0  0  0  0
  133.1680  122.2430  131.7620 F   0  0  0  0  0  0  0  0  0  0  0  0
  131.3570  121.1640  133.4750 C   0  0  0  0  0  0  0  0  0  0  0  0
  130.4910  120.6290  134.4310 C   0  0  0  0  0  0  0  0  0  0  0  0
  129.9400  119.3600  134.2430 C   0  0  0  0  0  0  0  0  0  0  0  0
  128.9550  118.7790  135.2200 C   0  0  0  0  0  0  0  0  0  0  0  0
  129.7990  117.5440  136.2060 S   0  0  0  0  0  6  0  0  0  0  0  0
  131.0040  118.1110  136.7820 O   0  0  0  0  0  0  0  0  0  0  0  0
  129.8580  116.3130  135.4380 O   0  0  0  0  0  0  0  0  0  0  0  0
  128.6640  117.2800  137.5490 C   0  0  0  0  0  0  0  0  0  0  0  0
  128.8520  117.9830  138.7440 C   0  0  0  0  0  0  0  0  0  0  0  0
  127.9680  117.7790  139.8030 C   0  0  0  0  0  0  0  0  0  0  0  0
  126.9130  116.8760  139.6670 C   0  0  0  0  0  0  0  0  0  0  0  0
  126.7410  116.1660  138.4780 C   0  0  0  0  0  0  0  0  0  0  0  0
  127.6200  116.3630  137.4120 C   0  0  0  0  0  0  0  0  0  0  0  0
  130.2840  118.6410  133.0920 C   0  0  0  0  0  0  0  0  0  0  0  0
  129.7560  117.4160  132.9350 F   0  0  0  0  0  0  0  0  0  0  0  0
  131.5340  114.9030  130.1890 C   0  0  0  0  0  0  0  0  0  0  0  0
  130.3200  114.7080  131.0010 C   0  0  0  0  0  0  0  0  0  0  0  0
  129.0770  115.1960  130.5670 C   0  0  0  0  0  0  0  0  0  0  0  0
  127.9330  115.0260  131.3490 C   0  0  0  0  0  0  0  0  0  0  0  0
  128.0110  114.3510  132.5650 C   0  0  0  0  0  0  0  0  0  0  0  0
  129.2350  113.8520  133.0060 C   0  0  0  0  0  0  0  0  0  0  0  0
  130.3830  114.0310  132.2290 C   0  0  0  0  0  0  0  0  0  0  0  0
  131.9000  113.8860  129.2830 C   0  0  0  0  0  0  0  0  0  0  0  0
  132.6160  111.2320  126.6590 H   0  0  0  0  0  0  0  0  0  0  0  0
  131.4810  111.9980  127.7100 H   0  0  0  0  0  0  0  0  0  0  0  0
  134.7414  115.2375  127.9683 H   0  0  0  0  0  0  0  0  0  0  0  0
  134.1274  117.0550  129.5546 H   0  0  0  0  0  0  0  0  0  0  0  0
  132.1430  116.8470  132.1870 H   0  0  0  0  0  0  0  0  0  0  0  0
  131.7888  122.1625  133.6383 H   0  0  0  0  0  0  0  0  0  0  0  0
  130.2428  121.2078  135.3329 H   0  0  0  0  0  0  0  0  0  0  0  0
  128.5665  119.5742  135.8733 H   0  0  0  0  0  0  0  0  0  0  0  0
  128.1125  118.3213  134.6807 H   0  0  0  0  0  0  0  0  0  0  0  0
  129.6888  118.6895  138.8471 H   0  0  0  0  0  0  0  0  0  0  0  0
  128.1024  118.3299  140.7455 H   0  0  0  0  0  0  0  0  0  0  0  0
  126.2130  116.7229  140.5016 H   0  0  0  0  0  0  0  0  0  0  0  0
  125.9115  115.4501  138.3808 H   0  0  0  0  0  0  0  0  0  0  0  0
  127.4918  115.8022  136.4744 H   0  0  0  0  0  0  0  0  0  0  0  0
  129.0038  115.7174  129.6012 H   0  0  0  0  0  0  0  0  0  0  0  0
  126.9680  115.4259  131.0042 H   0  0  0  0  0  0  0  0  0  0  0  0
  127.1073  114.2120  133.1765 H   0  0  0  0  0  0  0  0  0  0  0  0
  129.2978  113.3174  133.9653 H   0  0  0  0  0  0  0  0  0  0  0  0
  131.3467  113.6369  132.5839 H   0  0  0  0  0  0  0  0  0  0  0  0
  131.2785  112.9814  129.2087 H   0  0  0  0  0  0  0  0  0  0  0  0
  1  2  1  0
  2  3  2  0
  2  4  1  0
  4  5  2  0
  5  6  1  0
  6  7  2  0
  7  8  1  0
  8  9  1  0
  9 10  2  0
  9 11  1  0
 11 12  2  0
 12 13  1  0
 13 14  1  0
 13 15  1  0
 13 16  1  0
 12 17  1  0
 17 18  2  0
 18 19  1  0
 19 20  1  0
 20 21  1  0
 21 22  2  0
 21 23  2  0
 21 24  1  0
 24 25  2  0
 25 26  1  0
 26 27  2  0
 27 28  1  0
 28 29  2  0
 19 30  2  0
 30 31  1  0
  7 32  1  0
 32 33  1  0
 33 34  2  0
 34 35  1  0
 35 36  2  0
 36 37  1  0
 37 38  2  0
 32 39  2  0
 39  4  1  0
 30 11  1  0
 38 33  1  0
 29 24  1  0
  1 40  1  0
  1 41  1  0
  5 42  1  0
  6 43  1  0
  8 44  1  0
 17 45  1  0
 18 46  1  0
 20 47  1  0
 20 48  1  0
 25 49  1  0
 26 50  1  0
 27 51  1  0
 28 52  1  0
 29 53  1  0
 34 54  1  0
 35 55  1  0
 36 56  1  0
 37 57  1  0
 38 58  1  0
 39 59  1  0
M  END
$$$$

     RDKit          3D

 59 62  0  0  0  0  0  0  0  0999 V2000
  134.3950  112.6230  127.2330 N   0  0  0  0  0  0  0  0  0  0  0  0
  133.1220  112.7370  127.7200 C   0  0  0  0  0  0  0  0  0  0  0  0
  132.2520  111.9420  127.3880 O   0  0  0  0  0  0  0  0  0  0  0  0
  132.8330  113.8780  128.6270 C   0  0  0  0  0  0  0  0  0  0  0  0
  133.6670  114.9930  128.7090 C   0  0  0  0  0  0  0  0  0  0  0  0
  133.3540  116.0410  129.5830 C   0  0  0  0  0  0  0  0  0  0  0  0
  132.2140  115.9920  130.3940 C   0  0  0  0  0  0  0  0  0  0  0  0
  131.8790  117.0380  131.2920 N   0  0  0  0  0  0  0  0  0  0  0  0
  131.4600  118.3190  130.9910 C   0  0  0  0  0  0  0  0  0  0  0  0
  131.3390  118.8110  129.8770 O   0  0  0  0  0  0  0  0  0  0  0  0
  131.1250  119.1790  132.1580 C   0  0  0  0  0  0  0  0  0  0  0  0
  131.6740  120.4680  132.2940 C   0  0  0  0  0  0  0  0  0  0  0  0
  132.5670  121.0820  131.2390 C   0  0  0  0  0  0  0  0  0  0  0  0
  133.2150  122.2020  131.6560 F   0  0  0  0  0  0  0  0  0  0  0  0
  131.9150  121.3860  130.0870 F   0  0  0  0  0  0  0  0  0  0  0  0
  133.5670  120.2270  130.8600 F   0  0  0  0  0  0  0  0  0  0  0  0
  131.3620  121.2160  133.4490 C   0  0  0  0  0  0  0  0  0  0  0  0
  130.5070  120.7120  134.4330 C   0  0  0  0  0  0  0  0  0  0  0  0
  129.9490  119.4400  134.2890 C   0  0  0  0  0  0  0  0  0  0  0  0
  128.9760  118.8920  135.2970 C   0  0  0  0  0  0  0  0  0  0  0  0
  129.8020  117.6110  136.2390 S   0  0  0  0  0  6  0  0  0  0  0  0
  131.0270  118.1340  136.8150 O   0  0  0  0  0  0  0  0  0  0  0  0
  129.8220  116.4000  135.4370 O   0  0  0  0  0  0  0  0  0  0  0  0
  128.6760  117.3380  137.5880 C   0  0  0  0  0  0  0  0  0  0  0  0
  128.8510  118.0580  138.7740 C   0  0  0  0  0  0  0  0  0  0  0  0
  127.9740  117.8480  139.8380 C   0  0  0  0  0  0  0  0  0  0  0  0
  126.9390  116.9200  139.7150 C   0  0  0  0  0  0  0  0  0  0  0  0
  126.7800  116.1930  138.5340 C   0  0  0  0  0  0  0  0  0  0  0  0
  127.6520  116.3960  137.4650 C   0  0  0  0  0  0  0  0  0  0  0  0
  130.2730  118.6870  133.1550 C   0  0  0  0  0  0  0  0  0  0  0  0
  129.7390  117.4610  133.0400 F   0  0  0  0  0  0  0  0  0  0  0  0
  131.3630  114.8590  130.3210 C   0  0  0  0  0  0  0  0  0  0  0  0
  130.1460  114.7190  131.1400 C   0  0  0  0  0  0  0  0  0  0  0  0
  130.1820  114.0590  132.3780 C   0  0  0  0  0  0  0  0  0  0  0  0
  129.0220  113.9110  133.1420 C   0  0  0  0  0  0  0  0  0  0  0  0
  127.8150  114.4340  132.6860 C   0  0  0  0  0  0  0  0  0  0  0  0
  127.7620  115.1000  131.4640 C   0  0  0  0  0  0  0  0  0  0  0  0
  128.9200  115.2390  130.6940 C   0  0  0  0  0  0  0  0  0  0  0  0
  131.6960  113.8120  129.4370 C   0  0  0  0  0  0  0  0  0  0  0  0
  134.5330  111.9170  126.5210 H   0  0  0  0  0  0  0  0  0  0  0  0
  135.0500  113.3910  127.2540 H   0  0  0  0  0  0  0  0  0  0  0  0
  134.5719  115.0490  128.0861 H   0  0  0  0  0  0  0  0  0  0  0  0
  134.0155  116.9184  129.6333 H   0  0  0  0  0  0  0  0  0  0  0  0
  132.0140  116.8210  132.2750 H   0  0  0  0  0  0  0  0  0  0  0  0
  131.8008  122.2165  133.5776 H   0  0  0  0  0  0  0  0  0  0  0  0
  130.2735  121.3175  135.3212 H   0  0  0  0  0  0  0  0  0  0  0  0
  128.6472  119.6962  135.9717 H   0  0  0  0  0  0  0  0  0  0  0  0
  128.0946  118.4774  134.7859 H   0  0  0  0  0  0  0  0  0  0  0  0
  129.6728  118.7833  138.8669 H   0  0  0  0  0  0  0  0  0  0  0  0
  128.0980  118.4134  140.7734 H   0  0  0  0  0  0  0  0  0  0  0  0
  126.2448  116.7606  140.5532 H   0  0  0  0  0  0  0  0  0  0  0  0
  125.9655  115.4588  138.4465 H   0  0  0  0  0  0  0  0  0  0  0  0
  127.5348  115.8205  136.5349 H   0  0  0  0  0  0  0  0  0  0  0  0
  131.1342  113.6537  132.7509 H   0  0  0  0  0  0  0  0  0  0  0  0
  129.0622  113.3807  134.1049 H   0  0  0  0  0  0  0  0  0  0  0  0
  126.9032  114.3212  133.2909 H   0  0  0  0  0  0  0  0  0  0  0  0
  126.8092  115.5164  131.1051 H   0  0  0  0  0  0  0  0  0  0  0  0
  128.8706  115.7617  129.7274 H   0  0  0  0  0  0  0  0  0  0  0  0
  131.0475  112.9251  129.3839 H   0  0  0  0  0  0  0  0  0  0  0  0
  1  2  1  0
  2  3  2  0
  2  4  1  0
  4  5  2  0
  5  6  1  0
  6  7  2  0
  7  8  1  0
  8  9  1  0
  9 10  2  0
  9 11  1  0
 11 12  2  0
 12 13  1  0
 13 14  1  0
 13 15  1  0
 13 16  1  0
 12 17  1  0
 17 18  2  0
 18 19  1  0
 19 20  1  0
 20 21  1  0
 21 22  2  0
 21 23  2  0
 21 24  1  0
 24 25  2  0
 25 26  1  0
 26 27  2  0
 27 28  1  0
 28 29  2  0
 19 30  2  0
 30 31  1  0
  7 32  1  0
 32 33  1  0
 33 34  2  0
 34 35  1  0
 35 36  2  0
 36 37  1  0
 37 38  2  0
 32 39  2  0
 39  4  1  0
 30 11  1  0
 38 33  1  0
 29 24  1  0
  1 40  1  0
  1 41  1  0
  5 42  1  0
  6 43  1  0
  8 44  1  0
 17 45  1  0
 18 46  1  0
 20 47  1  0
 20 48  1  0
 25 49  1  0
 26 50  1  0
 27 51  1  0
 28 52  1  0
 29 53  1  0
 34 54  1  0
 35 55  1  0
 36 56  1  0
 37 57  1  0
 38 58  1  0
 39 59  1  0
M  END
$$$$

     RDKit          3D

 59 62  0  0  0  0  0  0  0  0999 V2000
  133.4400  113.4970  126.6770 N   0  0  0  0  0  0  0  0  0  0  0  0
  133.0660  113.2450  127.9690 C   0  0  0  0  0  0  0  0  0  0  0  0
  132.9450  112.0960  128.3730 O   0  0  0  0  0  0  0  0  0  0  0  0
  132.7750  114.4140  128.8400 C   0  0  0  0  0  0  0  0  0  0  0  0
  133.4060  115.6460  128.6690 C   0  0  0  0  0  0  0  0  0  0  0  0
  133.1010  116.7160  129.5180 C   0  0  0  0  0  0  0  0  0  0  0  0
  132.1720  116.5750  130.5560 C   0  0  0  0  0  0  0  0  0  0  0  0
  131.8510  117.6420  131.4330 N   0  0  0  0  0  0  0  0  0  0  0  0
  131.3520  118.8890  131.1130 C   0  0  0  0  0  0  0  0  0  0  0  0
  131.1330  119.3280  129.9920 O   0  0  0  0  0  0  0  0  0  0  0  0
  131.0580  119.7820  132.2660 C   0  0  0  0  0  0  0  0  0  0  0  0
  131.8080  120.9510  132.4910 C   0  0  0  0  0  0  0  0  0  0  0  0
  132.8950  121.4100  131.5450 C   0  0  0  0  0  0  0  0  0  0  0  0
  133.8020  122.2450  132.1180 F   0  0  0  0  0  0  0  0  0  0  0  0
  132.4210  122.0180  130.4270 F   0  0  0  0  0  0  0  0  0  0  0  0
  133.6410  120.3590  131.0830 F   0  0  0  0  0  0  0  0  0  0  0  0
  131.5170  121.7300  133.6320 C   0  0  0  0  0  0  0  0  0  0  0  0
  130.4940  121.3740  134.5140 C   0  0  0  0  0  0  0  0  0  0  0  0
  129.7400  120.2230  134.2810 C   0  0  0  0  0  0  0  0  0  0  0  0
  128.5900  119.8440  135.1740 C   0  0  0  0  0  0  0  0  0  0  0  0
  129.2480  119.3860  136.7770 S   0  0  0  0  0  6  0  0  0  0  0  0
  128.7510  120.2940  137.7930 O   0  0  0  0  0  0  0  0  0  0  0  0
  130.6740  119.1510  136.6310 O   0  0  0  0  0  0  0  0  0  0  0  0
  128.4770  117.8110  137.0740 C   0  0  0  0  0  0  0  0  0  0  0  0
  127.2960  117.4950  136.3940 C   0  0  0  0  0  0  0  0  0  0  0  0
  126.6830  116.2640  136.6230 C   0  0  0  0  0  0  0  0  0  0  0  0
  127.2450  115.3640  137.5310 C   0  0  0  0  0  0  0  0  0  0  0  0
  128.4150  115.6920  138.2180 C   0  0  0  0  0  0  0  0  0  0  0  0
  129.0350  116.9220  137.9950 C   0  0  0  0  0  0  0  0  0  0  0  0
  130.0380  119.4370  133.1620 C   0  0  0  0  0  0  0  0  0  0  0  0
  129.3120  118.3260  132.9610 F   0  0  0  0  0  0  0  0  0  0  0  0
  131.5280  115.3240  130.7410 C   0  0  0  0  0  0  0  0  0  0  0  0
  130.5410  115.0820  131.8080 C   0  0  0  0  0  0  0  0  0  0  0  0
  129.7360  113.9310  131.7980 C   0  0  0  0  0  0  0  0  0  0  0  0
  128.7890  113.7160  132.8010 C   0  0  0  0  0  0  0  0  0  0  0  0
  128.6450  114.6370  133.8360 C   0  0  0  0  0  0  0  0  0  0  0  0
  129.4420  115.7790  133.8660 C   0  0  0  0  0  0  0  0  0  0  0  0
  130.3830  116.0010  132.8570 C   0  0  0  0  0  0  0  0  0  0  0  0
  131.8510  114.2570  129.8770 C   0  0  0  0  0  0  0  0  0  0  0  0
  133.5080  112.6880  126.0730 H   0  0  0  0  0  0  0  0  0  0  0  0
  133.2840  114.3920  126.2370 H   0  0  0  0  0  0  0  0  0  0  0  0
  134.1452  115.7770  127.8650 H   0  0  0  0  0  0  0  0  0  0  0  0
  133.5999  117.6847  129.3672 H   0  0  0  0  0  0  0  0  0  0  0  0
  132.0620  117.4720  132.4120 H   0  0  0  0  0  0  0  0  0  0  0  0
  132.1082  122.6361  133.8305 H   0  0  0  0  0  0  0  0  0  0  0  0
  130.2826  122.0012  135.3926 H   0  0  0  0  0  0  0  0  0  0  0  0
  127.9066  120.6990  135.2831 H   0  0  0  0  0  0  0  0  0  0  0  0
  128.0340  119.0009  134.7380 H   0  0  0  0  0  0  0  0  0  0  0  0
  126.8551  118.2113  135.6851 H   0  0  0  0  0  0  0  0  0  0  0  0
  125.7577  116.0019  136.0891 H   0  0  0  0  0  0  0  0  0  0  0  0
  126.7628  114.3909  137.7059 H   0  0  0  0  0  0  0  0  0  0  0  0
  128.8486  114.9802  138.9358 H   0  0  0  0  0  0  0  0  0  0  0  0
  129.9533  117.1884  138.5388 H   0  0  0  0  0  0  0  0  0  0  0  0
  129.8529  113.1917  130.9919 H   0  0  0  0  0  0  0  0  0  0  0  0
  128.1552  112.8174  132.7739 H   0  0  0  0  0  0  0  0  0  0  0  0
  127.9027  114.4627  134.6288 H   0  0  0  0  0  0  0  0  0  0  0  0
  129.3307  116.5061  134.6839 H   0  0  0  0  0  0  0  0  0  0  0  0
  131.0070  116.9064  132.8852 H   0  0  0  0  0  0  0  0  0  0  0  0
  131.3655  113.2807  130.0223 H   0  0  0  0  0  0  0  0  0  0  0  0
  1  2  1  0
  2  3  2  0
  2  4  1  0
  4  5  2  0
  5  6  1  0
  6  7  2  0
  7  8  1  0
  8  9  1  0
  9 10  2  0
  9 11  1  0
 11 12  2  0
 12 13  1  0
 13 14  1  0
 13 15  1  0
 13 16  1  0
 12 17  1  0
 17 18  2  0
 18 19  1  0
 19 20  1  0
 20 21  1  0
 21 22  2  0
 21 23  2  0
 21 24  1  0
 24 25  2  0
 25 26  1  0
 26 27  2  0
 27 28  1  0
 28 29  2  0
 19 30  2  0
 30 31  1  0
  7 32  1  0
 32 33  1  0
 33 34  2  0
 34 35  1  0
 35 36  2  0
 36 37  1  0
 37 38  2  0
 32 39  2  0
 39  4  1  0
 30 11  1  0
 38 33  1  0
 29 24  1  0
  1 40  1  0
  1 41  1  0
  5 42  1  0
  6 43  1  0
  8 44  1  0
 17 45  1  0
 18 46  1  0
 20 47  1  0
 20 48  1  0
 25 49  1  0
 26 50  1  0
 27 51  1  0
 28 52  1  0
 29 53  1  0
 34 54  1  0
 35 55  1  0
 36 56  1  0
 37 57  1  0
 38 58  1  0
 39 59  1  0
M  END
$$$$

     RDKit          3D

 59 62  0  0  0  0  0  0  0  0999 V2000
  131.1310  112.5930  127.2360 N   0  0  0  0  0  0  0  0  0  0  0  0
  132.2630  112.8670  127.9540 C   0  0  0  0  0  0  0  0  0  0  0  0
  133.2510  112.1510  127.8620 O   0  0  0  0  0  0  0  0  0  0  0  0
  132.2270  114.0360  128.8710 C   0  0  0  0  0  0  0  0  0  0  0  0
  133.2340  115.0010  128.8890 C   0  0  0  0  0  0  0  0  0  0  0  0
  133.1570  116.0820  129.7740 C   0  0  0  0  0  0  0  0  0  0  0  0
  132.0830  116.2150  130.6630 C   0  0  0  0  0  0  0  0  0  0  0  0
  131.9850  117.2970  131.5750 N   0  0  0  0  0  0  0  0  0  0  0  0
  131.3740  118.5200  131.3850 C   0  0  0  0  0  0  0  0  0  0  0  0
  130.8320  118.9210  130.3630 O   0  0  0  0  0  0  0  0  0  0  0  0
  131.3860  119.4370  132.5560 C   0  0  0  0  0  0  0  0  0  0  0  0
  131.8810  120.7500  132.4480 C   0  0  0  0  0  0  0  0  0  0  0  0
  132.3540  121.3310  131.1340 C   0  0  0  0  0  0  0  0  0  0  0  0
  131.3760  121.4200  130.1930 F   0  0  0  0  0  0  0  0  0  0  0  0
  133.3950  120.6540  130.5850 F   0  0  0  0  0  0  0  0  0  0  0  0
  132.8080  122.6130  131.2800 F   0  0  0  0  0  0  0  0  0  0  0  0
  131.9160  121.5550  133.6060 C   0  0  0  0  0  0  0  0  0  0  0  0
  131.4510  121.0820  134.8350 C   0  0  0  0  0  0  0  0  0  0  0  0
  130.9440  119.7850  134.9390 C   0  0  0  0  0  0  0  0  0  0  0  0
  130.3760  119.2640  136.2310 C   0  0  0  0  0  0  0  0  0  0  0  0
  128.6390  119.6960  136.2970 S   0  0  0  0  0  6  0  0  0  0  0  0
  128.0820  119.7090  134.9580 O   0  0  0  0  0  0  0  0  0  0  0  0
  128.4910  120.8490  137.1690 O   0  0  0  0  0  0  0  0  0  0  0  0
  127.9260  118.2990  137.1370 C   0  0  0  0  0  0  0  0  0  0  0  0
  128.1100  118.1720  138.5180 C   0  0  0  0  0  0  0  0  0  0  0  0
  127.5570  117.0780  139.1830 C   0  0  0  0  0  0  0  0  0  0  0  0
  126.8350  116.1200  138.4690 C   0  0  0  0  0  0  0  0  0  0  0  0
  126.6690  116.2460  137.0890 C   0  0  0  0  0  0  0  0  0  0  0  0
  127.2190  117.3360  136.4150 C   0  0  0  0  0  0  0  0  0  0  0  0
  130.9260  118.9770  133.7960 C   0  0  0  0  0  0  0  0  0  0  0  0
  130.4490  117.7270  133.9170 F   0  0  0  0  0  0  0  0  0  0  0  0
  131.0560  115.2350  130.6570 C   0  0  0  0  0  0  0  0  0  0  0  0
  129.8920  115.2900  131.5590 C   0  0  0  0  0  0  0  0  0  0  0  0
  129.9060  114.6230  132.7950 C   0  0  0  0  0  0  0  0  0  0  0  0
  128.7930  114.6620  133.6380 C   0  0  0  0  0  0  0  0  0  0  0  0
  127.6600  115.3800  133.2660 C   0  0  0  0  0  0  0  0  0  0  0  0
  127.6330  116.0550  132.0480 C   0  0  0  0  0  0  0  0  0  0  0  0
  128.7410  116.0090  131.1990 C   0  0  0  0  0  0  0  0  0  0  0  0
  131.1530  114.1520  129.7600 C   0  0  0  0  0  0  0  0  0  0  0  0
  131.1380  111.7230  126.7190 H   0  0  0  0  0  0  0  0  0  0  0  0
  130.2310  112.9760  127.4840 H   0  0  0  0  0  0  0  0  0  0  0  0
  134.0912  114.9119  128.2054 H   0  0  0  0  0  0  0  0  0  0  0  0
  133.9537  116.8404  129.7715 H   0  0  0  0  0  0  0  0  0  0  0  0
  132.4700  117.1610  132.4570 H   0  0  0  0  0  0  0  0  0  0  0  0
  132.3180  122.5767  133.5395 H   0  0  0  0  0  0  0  0  0  0  0  0
  131.4842  121.7317  135.7220 H   0  0  0  0  0  0  0  0  0  0  0  0
  130.4891  118.1706  136.2729 H   0  0  0  0  0  0  0  0  0  0  0  0
  130.9092  119.7069  137.0851 H   0  0  0  0  0  0  0  0  0  0  0  0
  128.6850  118.9274  139.0737 H   0  0  0  0  0  0  0  0  0  0  0  0
  127.6897  116.9700  140.2696 H   0  0  0  0  0  0  0  0  0  0  0  0
  126.3946  115.2613  138.9969 H   0  0  0  0  0  0  0  0  0  0  0  0
  126.1035  115.4844  136.5321 H   0  0  0  0  0  0  0  0  0  0  0  0
  127.0970  117.4358  135.3263 H   0  0  0  0  0  0  0  0  0  0  0  0
  130.8024  114.0644  133.1022 H   0  0  0  0  0  0  0  0  0  0  0  0
  128.8118  114.1244  134.5975 H   0  0  0  0  0  0  0  0  0  0  0  0
  126.7864  115.4143  133.9336 H   0  0  0  0  0  0  0  0  0  0  0  0
  126.7388  116.6245  131.7547 H   0  0  0  0  0  0  0  0  0  0  0  0
  128.7116  116.5422  130.2373 H   0  0  0  0  0  0  0  0  0  0  0  0
  130.3677  113.3818  129.7590 H   0  0  0  0  0  0  0  0  0  0  0  0
  1  2  1  0
  2  3  2  0
  2  4  1  0
  4  5  2  0
  5  6  1  0
  6  7  2  0
  7  8  1  0
  8  9  1  0
  9 10  2  0
  9 11  1  0
 11 12  2  0
 12 13  1  0
 13 14  1  0
 13 15  1  0
 13 16  1  0
 12 17  1  0
 17 18  2  0
 18 19  1  0
 19 20  1  0
 20 21  1  0
 21 22  2  0
 21 23  2  0
 21 24  1  0
 24 25  2  0
 25 26  1  0
 26 27  2  0
 27 28  1  0
 28 29  2  0
 19 30  2  0
 30 31  1  0
  7 32  1  0
 32 33  1  0
 33 34  2  0
 34 35  1  0
 35 36  2  0
 36 37  1  0
 37 38  2  0
 32 39  2  0
 39  4  1  0
 30 11  1  0
 38 33  1  0
 29 24  1  0
  1 40  1  0
  1 41  1  0
  5 42  1  0
  6 43  1  0
  8 44  1  0
 17 45  1  0
 18 46  1  0
 20 47  1  0
 20 48  1  0
 25 49  1  0
 26 50  1  0
 27 51  1  0
 28 52  1  0
 29 53  1  0
 34 54  1  0
 35 55  1  0
 36 56  1  0
 37 57  1  0
 38 58  1  0
 39 59  1  0
M  END
$$$$

     RDKit          3D

 59 62  0  0  0  0  0  0  0  0999 V2000
  131.1340  112.6090  127.2300 N   0  0  0  0  0  0  0  0  0  0  0  0
  132.2620  112.8790  127.9550 C   0  0  0  0  0  0  0  0  0  0  0  0
  133.2490  112.1600  127.8680 O   0  0  0  0  0  0  0  0  0  0  0  0
  132.2250  114.0470  128.8730 C   0  0  0  0  0  0  0  0  0  0  0  0
  133.2290  115.0160  128.8870 C   0  0  0  0  0  0  0  0  0  0  0  0
  133.1510  116.0960  129.7730 C   0  0  0  0  0  0  0  0  0  0  0  0
  132.0790  116.2250  130.6650 C   0  0  0  0  0  0  0  0  0  0  0  0
  131.9800  117.3070  131.5780 N   0  0  0  0  0  0  0  0  0  0  0  0
  131.3650  118.5280  131.3890 C   0  0  0  0  0  0  0  0  0  0  0  0
  130.8210  118.9280  130.3680 O   0  0  0  0  0  0  0  0  0  0  0  0
  131.3770  119.4450  132.5610 C   0  0  0  0  0  0  0  0  0  0  0  0
  131.8670  120.7600  132.4520 C   0  0  0  0  0  0  0  0  0  0  0  0
  132.3330  121.3430  131.1370 C   0  0  0  0  0  0  0  0  0  0  0  0
  132.7850  122.6210  131.2360 F   0  0  0  0  0  0  0  0  0  0  0  0
  131.3870  121.3120  130.1630 F   0  0  0  0  0  0  0  0  0  0  0  0
  133.3910  120.6440  130.6190 F   0  0  0  0  0  0  0  0  0  0  0  0
  131.9020  121.5640  133.6110 C   0  0  0  0  0  0  0  0  0  0  0  0
  131.4420  121.0890  134.8410 C   0  0  0  0  0  0  0  0  0  0  0  0
  130.9410  119.7900  134.9450 C   0  0  0  0  0  0  0  0  0  0  0  0
  130.3790  119.2670  136.2390 C   0  0  0  0  0  0  0  0  0  0  0  0
  128.6370  119.6810  136.3050 S   0  0  0  0  0  6  0  0  0  0  0  0
  128.0810  119.6910  134.9650 O   0  0  0  0  0  0  0  0  0  0  0  0
  128.4780  120.8310  137.1790 O   0  0  0  0  0  0  0  0  0  0  0  0
  127.9380  118.2760  137.1410 C   0  0  0  0  0  0  0  0  0  0  0  0
  127.2100  117.3390  136.4000 C   0  0  0  0  0  0  0  0  0  0  0  0
  126.6560  116.2360  137.0480 C   0  0  0  0  0  0  0  0  0  0  0  0
  126.8240  116.0790  138.4250 C   0  0  0  0  0  0  0  0  0  0  0  0
  127.5380  117.0260  139.1600 C   0  0  0  0  0  0  0  0  0  0  0  0
  128.0960  118.1330  138.5210 C   0  0  0  0  0  0  0  0  0  0  0  0
  130.9230  118.9820  133.8020 C   0  0  0  0  0  0  0  0  0  0  0  0
  130.4510  117.7310  133.9240 F   0  0  0  0  0  0  0  0  0  0  0  0
  131.0550  115.2420  130.6620 C   0  0  0  0  0  0  0  0  0  0  0  0
  129.8940  115.2930  131.5670 C   0  0  0  0  0  0  0  0  0  0  0  0
  128.7400  116.0140  131.2200 C   0  0  0  0  0  0  0  0  0  0  0  0
  127.6490  116.0750  132.0890 C   0  0  0  0  0  0  0  0  0  0  0  0
  127.6900  115.4030  133.3090 C   0  0  0  0  0  0  0  0  0  0  0  0
  128.8230  114.6760  133.6650 C   0  0  0  0  0  0  0  0  0  0  0  0
  129.9190  114.6220  132.8010 C   0  0  0  0  0  0  0  0  0  0  0  0
  131.1530  114.1590  129.7640 C   0  0  0  0  0  0  0  0  0  0  0  0
  131.1410  111.7390  126.7120 H   0  0  0  0  0  0  0  0  0  0  0  0
  130.2330  112.9950  127.4730 H   0  0  0  0  0  0  0  0  0  0  0  0
  134.0837  114.9305  128.1999 H   0  0  0  0  0  0  0  0  0  0  0  0
  133.9453  116.8569  129.7689 H   0  0  0  0  0  0  0  0  0  0  0  0
  132.4670  117.1720  132.4590 H   0  0  0  0  0  0  0  0  0  0  0  0
  132.3003  122.5872  133.5442 H   0  0  0  0  0  0  0  0  0  0  0  0
  131.4744  121.7385  135.7282 H   0  0  0  0  0  0  0  0  0  0  0  0
  130.5036  118.1750  136.2841 H   0  0  0  0  0  0  0  0  0  0  0  0
  130.9080  119.7182  137.0914 H   0  0  0  0  0  0  0  0  0  0  0  0
  127.0760  117.4713  135.3162 H   0  0  0  0  0  0  0  0  0  0  0  0
  126.0867  115.4896  136.4745 H   0  0  0  0  0  0  0  0  0  0  0  0
  126.3914  115.2045  138.9330 H   0  0  0  0  0  0  0  0  0  0  0  0
  127.6611  116.8992  140.2457 H   0  0  0  0  0  0  0  0  0  0  0  0
  128.6543  118.8851  139.0977 H   0  0  0  0  0  0  0  0  0  0  0  0
  128.6952  116.5364  130.2530 H   0  0  0  0  0  0  0  0  0  0  0  0
  126.7562  116.6541  131.8103 H   0  0  0  0  0  0  0  0  0  0  0  0
  126.8277  115.4468  133.9906 H   0  0  0  0  0  0  0  0  0  0  0  0
  128.8548  114.1439  134.6272 H   0  0  0  0  0  0  0  0  0  0  0  0
  130.8116  114.0478  133.0899 H   0  0  0  0  0  0  0  0  0  0  0  0
  130.3700  113.3864  129.7644 H   0  0  0  0  0  0  0  0  0  0  0  0
  1  2  1  0
  2  3  2  0
  2  4  1  0
  4  5  2  0
  5  6  1  0
  6  7  2  0
  7  8  1  0
  8  9  1  0
  9 10  2  0
  9 11  1  0
 11 12  2  0
 12 13  1  0
 13 14  1  0
 13 15  1  0
 13 16  1  0
 12 17  1  0
 17 18  2  0
 18 19  1  0
 19 20  1  0
 20 21  1  0
 21 22  2  0
 21 23  2  0
 21 24  1  0
 24 25  2  0
 25 26  1  0
 26 27  2  0
 27 28  1  0
 28 29  2  0
 19 30  2  0
 30 31  1  0
  7 32  1  0
 32 33  1  0
 33 34  2  0
 34 35  1  0
 35 36  2  0
 36 37  1  0
 37 38  2  0
 32 39  2  0
 39  4  1  0
 30 11  1  0
 38 33  1  0
 29 24  1  0
  1 40  1  0
  1 41  1  0
  5 42  1  0
  6 43  1  0
  8 44  1  0
 17 45  1  0
 18 46  1  0
 20 47  1  0
 20 48  1  0
 25 49  1  0
 26 50  1  0
 27 51  1  0
 28 52  1  0
 29 53  1  0
 34 54  1  0
 35 55  1  0
 36 56  1  0
 37 57  1  0
 38 58  1  0
 39 59  1  0
M  END
$$$$

     RDKit          3D

 59 62  0  0  0  0  0  0  0  0999 V2000
  126.7580  116.0340  139.2140 N   0  0  0  0  0  0  0  0  0  0  0  0
  126.7490  115.6850  137.8910 C   0  0  0  0  0  0  0  0  0  0  0  0
  126.0400  114.7720  137.4900 O   0  0  0  0  0  0  0  0  0  0  0  0
  127.6580  116.4280  136.9790 C   0  0  0  0  0  0  0  0  0  0  0  0
  128.3150  117.5950  137.3700 C   0  0  0  0  0  0  0  0  0  0  0  0
  129.1580  118.2610  136.4730 C   0  0  0  0  0  0  0  0  0  0  0  0
  129.3530  117.7830  135.1710 C   0  0  0  0  0  0  0  0  0  0  0  0
  130.1960  118.4440  134.2420 N   0  0  0  0  0  0  0  0  0  0  0  0
  129.8570  119.4200  133.3260 C   0  0  0  0  0  0  0  0  0  0  0  0
  128.7400  119.8730  133.1130 O   0  0  0  0  0  0  0  0  0  0  0  0
  130.9810  119.9680  132.5200 C   0  0  0  0  0  0  0  0  0  0  0  0
  131.6560  121.1390  132.9120 C   0  0  0  0  0  0  0  0  0  0  0  0
  131.3370  121.8620  134.2020 C   0  0  0  0  0  0  0  0  0  0  0  0
  131.5220  121.1010  135.3140 F   0  0  0  0  0  0  0  0  0  0  0  0
  130.0760  122.3620  134.2470 F   0  0  0  0  0  0  0  0  0  0  0  0
  132.1510  122.9470  134.3890 F   0  0  0  0  0  0  0  0  0  0  0  0
  132.6780  121.6390  132.0790 C   0  0  0  0  0  0  0  0  0  0  0  0
  133.0410  120.9850  130.8990 C   0  0  0  0  0  0  0  0  0  0  0  0
  132.3820  119.8150  130.5180 C   0  0  0  0  0  0  0  0  0  0  0  0
  132.7890  119.0490  129.2880 C   0  0  0  0  0  0  0  0  0  0  0  0
  134.4650  118.4600  129.5200 S   0  0  0  0  0  6  0  0  0  0  0  0
  134.9410  118.8320  130.8390 O   0  0  0  0  0  0  0  0  0  0  0  0
  135.2330  118.8020  128.3350 O   0  0  0  0  0  0  0  0  0  0  0  0
  134.2560  116.6940  129.5280 C   0  0  0  0  0  0  0  0  0  0  0  0
  135.3910  115.8770  129.5370 C   0  0  0  0  0  0  0  0  0  0  0  0
  135.2360  114.4910  129.5400 C   0  0  0  0  0  0  0  0  0  0  0  0
  133.9560  113.9330  129.5260 C   0  0  0  0  0  0  0  0  0  0  0  0
  132.8290  114.7540  129.5010 C   0  0  0  0  0  0  0  0  0  0  0  0
  132.9730  116.1420  129.4970 C   0  0  0  0  0  0  0  0  0  0  0  0
  131.3540  119.3260  131.3320 C   0  0  0  0  0  0  0  0  0  0  0  0
  130.7210  118.2070  130.9440 F   0  0  0  0  0  0  0  0  0  0  0  0
  128.6840  116.6000  134.7630 C   0  0  0  0  0  0  0  0  0  0  0  0
  128.8240  116.0270  133.4120 C   0  0  0  0  0  0  0  0  0  0  0  0
  127.9730  116.4240  132.3690 C   0  0  0  0  0  0  0  0  0  0  0  0
  128.0980  115.8640  131.0950 C   0  0  0  0  0  0  0  0  0  0  0  0
  129.0840  114.9130  130.8440 C   0  0  0  0  0  0  0  0  0  0  0  0
  129.9430  114.5150  131.8650 C   0  0  0  0  0  0  0  0  0  0  0  0
  129.8130  115.0670  133.1420 C   0  0  0  0  0  0  0  0  0  0  0  0
  127.8370  115.9450  135.6790 C   0  0  0  0  0  0  0  0  0  0  0  0
  126.2290  115.4320  139.8320 H   0  0  0  0  0  0  0  0  0  0  0  0
  127.5080  116.5720  139.6230 H   0  0  0  0  0  0  0  0  0  0  0  0
  128.1702  117.9925  138.3854 H   0  0  0  0  0  0  0  0  0  0  0  0
  129.6764  119.1758  136.7962 H   0  0  0  0  0  0  0  0  0  0  0  0
  131.1570  118.1160  134.2240 H   0  0  0  0  0  0  0  0  0  0  0  0
  133.2007  122.5639  132.3644 H   0  0  0  0  0  0  0  0  0  0  0  0
  133.8463  121.3922  130.2700 H   0  0  0  0  0  0  0  0  0  0  0  0
  132.1117  118.1948  129.1409 H   0  0  0  0  0  0  0  0  0  0  0  0
  132.7352  119.6989  128.4021 H   0  0  0  0  0  0  0  0  0  0  0  0
  136.3964  116.3233  129.5417 H   0  0  0  0  0  0  0  0  0  0  0  0
  136.1211  113.8380  129.5534 H   0  0  0  0  0  0  0  0  0  0  0  0
  133.8360  112.8396  129.5347 H   0  0  0  0  0  0  0  0  0  0  0  0
  131.8243  114.3065  129.4844 H   0  0  0  0  0  0  0  0  0  0  0  0
  132.0871  116.7935  129.4697 H   0  0  0  0  0  0  0  0  0  0  0  0
  127.1998  117.1837  132.5564 H   0  0  0  0  0  0  0  0  0  0  0  0
  127.4167  116.1747  130.2892 H   0  0  0  0  0  0  0  0  0  0  0  0
  129.1841  114.4764  129.8393 H   0  0  0  0  0  0  0  0  0  0  0  0
  130.7238  113.7661  131.6663 H   0  0  0  0  0  0  0  0  0  0  0  0
  130.4929  114.7461  133.9449 H   0  0  0  0  0  0  0  0  0  0  0  0
  127.3054  115.0346  135.3648 H   0  0  0  0  0  0  0  0  0  0  0  0
  1  2  1  0
  2  3  2  0
  2  4  1  0
  4  5  2  0
  5  6  1  0
  6  7  2  0
  7  8  1  0
  8  9  1  0
  9 10  2  0
  9 11  1  0
 11 12  2  0
 12 13  1  0
 13 14  1  0
 13 15  1  0
 13 16  1  0
 12 17  1  0
 17 18  2  0
 18 19  1  0
 19 20  1  0
 20 21  1  0
 21 22  2  0
 21 23  2  0
 21 24  1  0
 24 25  2  0
 25 26  1  0
 26 27  2  0
 27 28  1  0
 28 29  2  0
 19 30  2  0
 30 31  1  0
  7 32  1  0
 32 33  1  0
 33 34  2  0
 34 35  1  0
 35 36  2  0
 36 37  1  0
 37 38  2  0
 32 39  2  0
 39  4  1  0
 30 11  1  0
 38 33  1  0
 29 24  1  0
  1 40  1  0
  1 41  1  0
  5 42  1  0
  6 43  1  0
  8 44  1  0
 17 45  1  0
 18 46  1  0
 20 47  1  0
 20 48  1  0
 25 49  1  0
 26 50  1  0
 27 51  1  0
 28 52  1  0
 29 53  1  0
 34 54  1  0
 35 55  1  0
 36 56  1  0
 37 57  1  0
 38 58  1  0
 39 59  1  0
M  END
$$$$

