
     RDKit          3D

 75 76  0  0  0  0  0  0  0  0999 V2000
  131.3750  121.3720  134.3270 C   0  0  0  0  0  0  0  0  0  0  0  0
  130.7570  120.0010  134.3050 C   0  0  0  0  0  0  0  0  0  0  0  0
  130.5210  119.3260  135.5120 C   0  0  0  0  0  0  0  0  0  0  0  0
  129.9480  118.0520  135.4950 C   0  0  0  0  0  0  0  0  0  0  0  0
  129.6420  117.1860  137.0140 S   0  0  0  0  0  6  0  0  0  0  0  0
  129.4730  115.7880  136.6820 O   0  0  0  0  0  0  0  0  0  0  0  0
  130.6180  117.6110  137.9950 O   0  0  0  0  0  0  0  0  0  0  0  0
  128.1220  117.8090  137.5050 N   0  0  0  0  0  0  0  0  0  0  0  0
  126.9480  117.1070  136.9390 C   0  0  0  0  0  0  0  0  0  0  0  0
  128.0170  119.2750  137.3160 C   0  0  0  0  0  0  0  0  0  0  0  0
  129.6180  117.4350  134.2870 C   0  0  0  0  0  0  0  0  0  0  0  0
  129.8530  118.1040  133.0840 C   0  0  0  0  0  0  0  0  0  0  0  0
  130.4210  119.3840  133.0830 C   0  0  0  0  0  0  0  0  0  0  0  0
  130.6840  120.1220  131.9590 O   0  0  0  0  0  0  0  0  0  0  0  0
  131.4920  119.5240  130.9470 C   0  0  0  0  0  0  0  0  0  0  0  0
  132.7150  120.4110  130.7110 C   0  0  0  0  0  0  0  0  0  0  0  0
  133.9190  119.6110  130.2070 C   0  0  0  0  0  0  0  0  0  0  0  0
  133.5020  118.5860  129.1500 C   0  0  0  0  0  0  0  0  0  0  0  0
  134.1810  117.2350  129.3900 C   0  0  0  0  0  0  0  0  0  0  0  0
  133.2250  116.0520  129.2360 C   0  0  0  0  0  0  0  0  0  0  0  0
  133.9840  114.7960  129.0300 N   0  0  0  0  0  0  0  0  0  0  0  0
  135.2720  114.7480  129.7400 C   0  0  0  0  0  0  0  0  0  0  0  0
  133.1040  113.3440  128.9250 S   0  0  0  0  0  6  0  0  0  0  0  0
  133.8040  112.3350  129.6930 O   0  0  0  0  0  0  0  0  0  0  0  0
  132.7650  113.1200  127.5350 O   0  0  0  0  0  0  0  0  0  0  0  0
  131.5940  113.7160  129.7930 C   0  0  0  0  0  0  0  0  0  0  0  0
  130.3880  113.7850  129.0980 C   0  0  0  0  0  0  0  0  0  0  0  0
  129.1990  114.0500  129.7890 C   0  0  0  0  0  0  0  0  0  0  0  0
  129.1900  114.2350  131.1830 C   0  0  0  0  0  0  0  0  0  0  0  0
  127.9000  114.5250  131.9720 C   0  0  0  0  0  0  0  0  0  0  0  0
  128.2000  114.5000  133.4870 C   0  0  0  0  0  0  0  0  0  0  0  0
  126.8410  113.4510  131.6470 C   0  0  0  0  0  0  0  0  0  0  0  0
  127.2690  115.9000  131.6560 C   0  0  0  0  0  0  0  0  0  0  0  0
  130.4220  114.1300  131.8610 C   0  0  0  0  0  0  0  0  0  0  0  0
  131.6140  113.8650  131.1780 C   0  0  0  0  0  0  0  0  0  0  0  0
  131.5194  121.6924  135.3693 H   0  0  0  0  0  0  0  0  0  0  0  0
  132.3476  121.3441  133.8139 H   0  0  0  0  0  0  0  0  0  0  0  0
  130.7100  122.0822  133.8139 H   0  0  0  0  0  0  0  0  0  0  0  0
  130.7864  119.7986  136.4692 H   0  0  0  0  0  0  0  0  0  0  0  0
  126.3169  116.7296  137.7571 H   0  0  0  0  0  0  0  0  0  0  0  0
  126.3664  117.8057  136.3197 H   0  0  0  0  0  0  0  0  0  0  0  0
  127.2883  116.2640  136.3197 H   0  0  0  0  0  0  0  0  0  0  0  0
  127.9816  119.7697  138.2978 H   0  0  0  0  0  0  0  0  0  0  0  0
  128.8916  119.6359  136.7549 H   0  0  0  0  0  0  0  0  0  0  0  0
  127.0999  119.5076  136.7549 H   0  0  0  0  0  0  0  0  0  0  0  0
  129.1755  116.4279  134.2828 H   0  0  0  0  0  0  0  0  0  0  0  0
  129.5902  117.6223  132.1307 H   0  0  0  0  0  0  0  0  0  0  0  0
  131.8164  118.5251  131.2741 H   0  0  0  0  0  0  0  0  0  0  0  0
  130.9150  119.4244  130.0158 H   0  0  0  0  0  0  0  0  0  0  0  0
  132.4592  121.1758  129.9629 H   0  0  0  0  0  0  0  0  0  0  0  0
  132.9914  120.8690  131.6722 H   0  0  0  0  0  0  0  0  0  0  0  0
  134.6503  120.3040  129.7654 H   0  0  0  0  0  0  0  0  0  0  0  0
  134.3591  119.0720  131.0589 H   0  0  0  0  0  0  0  0  0  0  0  0
  132.4110  118.4516  129.1914 H   0  0  0  0  0  0  0  0  0  0  0  0
  133.8097  118.9597  128.1622 H   0  0  0  0  0  0  0  0  0  0  0  0
  135.0004  117.1205  128.6651 H   0  0  0  0  0  0  0  0  0  0  0  0
  134.5475  117.2298  130.4271 H   0  0  0  0  0  0  0  0  0  0  0  0
  132.6129  115.9603  130.1453 H   0  0  0  0  0  0  0  0  0  0  0  0
  132.5807  116.2263  128.3617 H   0  0  0  0  0  0  0  0  0  0  0  0
  135.0929  114.7547  130.8253 H   0  0  0  0  0  0  0  0  0  0  0  0
  135.8095  113.8292  129.4627 H   0  0  0  0  0  0  0  0  0  0  0  0
  135.8764  115.6242  129.4627 H   0  0  0  0  0  0  0  0  0  0  0  0
  130.3700  113.6316  128.0089 H   0  0  0  0  0  0  0  0  0  0  0  0
  128.2536  114.1147  129.2304 H   0  0  0  0  0  0  0  0  0  0  0  0
  127.2575  114.5785  134.0488 H   0  0  0  0  0  0  0  0  0  0  0  0
  128.7035  113.5568  133.7456 H   0  0  0  0  0  0  0  0  0  0  0  0
  128.8526  115.3469  133.7456 H   0  0  0  0  0  0  0  0  0  0  0  0
  126.4360  113.0402  132.5836 H   0  0  0  0  0  0  0  0  0  0  0  0
  126.0265  113.9041  131.0629 H   0  0  0  0  0  0  0  0  0  0  0  0
  127.3056  112.6429  131.0629 H   0  0  0  0  0  0  0  0  0  0  0  0
  127.0309  116.4189  132.5962 H   0  0  0  0  0  0  0  0  0  0  0  0
  127.9798  116.5045  131.0734 H   0  0  0  0  0  0  0  0  0  0  0  0
  126.3472  115.7552  131.0734 H   0  0  0  0  0  0  0  0  0  0  0  0
  130.4465  114.2595  132.9531 H   0  0  0  0  0  0  0  0  0  0  0  0
  132.5607  113.7749  131.7309 H   0  0  0  0  0  0  0  0  0  0  0  0
  1  2  1  0
  2  3  2  0
  3  4  1  0
  4  5  1  0
  5  6  2  0
  5  7  2  0
  5  8  1  0
  8  9  1  0
  8 10  1  0
  4 11  2  0
 11 12  1  0
 12 13  2  0
 13 14  1  0
 14 15  1  0
 15 16  1  0
 16 17  1  0
 17 18  1  0
 18 19  1  0
 19 20  1  0
 20 21  1  0
 21 22  1  0
 21 23  1  0
 23 24  2  0
 23 25  2  0
 23 26  1  0
 26 27  2  0
 27 28  1  0
 28 29  2  0
 29 30  1  0
 30 31  1  0
 30 32  1  0
 30 33  1  0
 29 34  1  0
 34 35  2  0
 13  2  1  0
 35 26  1  0
  1 36  1  0
  1 37  1  0
  1 38  1  0
  3 39  1  0
  9 40  1  0
  9 41  1  0
  9 42  1  0
 10 43  1  0
 10 44  1  0
 10 45  1  0
 11 46  1  0
 12 47  1  0
 15 48  1  0
 15 49  1  0
 16 50  1  0
 16 51  1  0
 17 52  1  0
 17 53  1  0
 18 54  1  0
 18 55  1  0
 19 56  1  0
 19 57  1  0
 20 58  1  0
 20 59  1  0
 22 60  1  0
 22 61  1  0
 22 62  1  0
 27 63  1  0
 28 64  1  0
 31 65  1  0
 31 66  1  0
 31 67  1  0
 32 68  1  0
 32 69  1  0
 32 70  1  0
 33 71  1  0
 33 72  1  0
 33 73  1  0
 34 74  1  0
 35 75  1  0
M  END
$$$$

     RDKit          3D

 75 76  0  0  0  0  0  0  0  0999 V2000
  130.2290  117.4240  132.5420 C   0  0  0  0  0  0  0  0  0  0  0  0
  130.1480  118.2580  133.7910 C   0  0  0  0  0  0  0  0  0  0  0  0
  129.2870  117.8720  134.8300 C   0  0  0  0  0  0  0  0  0  0  0  0
  129.2090  118.6460  135.9910 C   0  0  0  0  0  0  0  0  0  0  0  0
  128.1250  118.1700  137.3130 S   0  0  0  0  0  6  0  0  0  0  0  0
  128.2280  119.1880  138.3360 O   0  0  0  0  0  0  0  0  0  0  0  0
  126.8440  117.7970  136.7520 O   0  0  0  0  0  0  0  0  0  0  0  0
  128.8580  116.7380  137.9060 N   0  0  0  0  0  0  0  0  0  0  0  0
  130.3380  116.7320  137.8650 C   0  0  0  0  0  0  0  0  0  0  0  0
  128.2960  115.5120  137.2920 C   0  0  0  0  0  0  0  0  0  0  0  0
  129.9700  119.8080  136.1250 C   0  0  0  0  0  0  0  0  0  0  0  0
  130.8280  120.1950  135.0930 C   0  0  0  0  0  0  0  0  0  0  0  0
  130.9220  119.4280  133.9250 C   0  0  0  0  0  0  0  0  0  0  0  0
  131.7360  119.7200  132.8620 O   0  0  0  0  0  0  0  0  0  0  0  0
  131.2940  120.7160  131.9420 C   0  0  0  0  0  0  0  0  0  0  0  0
  131.8790  120.4050  130.5650 C   0  0  0  0  0  0  0  0  0  0  0  0
  132.9390  119.3010  130.6240 C   0  0  0  0  0  0  0  0  0  0  0  0
  133.0540  118.5700  129.2840 C   0  0  0  0  0  0  0  0  0  0  0  0
  133.7860  117.2340  129.4440 C   0  0  0  0  0  0  0  0  0  0  0  0
  132.9940  116.0520  128.8850 C   0  0  0  0  0  0  0  0  0  0  0  0
  133.8290  114.8270  128.8780 N   0  0  0  0  0  0  0  0  0  0  0  0
  135.0700  114.9410  129.6590 C   0  0  0  0  0  0  0  0  0  0  0  0
  133.0320  113.3230  128.9040 S   0  0  0  0  0  6  0  0  0  0  0  0
  133.8140  112.4140  129.7160 O   0  0  0  0  0  0  0  0  0  0  0  0
  132.6650  112.9830  127.5460 O   0  0  0  0  0  0  0  0  0  0  0  0
  131.5300  113.6710  129.7970 C   0  0  0  0  0  0  0  0  0  0  0  0
  130.3030  113.6330  129.1380 C   0  0  0  0  0  0  0  0  0  0  0  0
  129.1220  113.8780  129.8500 C   0  0  0  0  0  0  0  0  0  0  0  0
  129.1430  114.1500  131.2290 C   0  0  0  0  0  0  0  0  0  0  0  0
  127.8630  114.4210  132.0410 C   0  0  0  0  0  0  0  0  0  0  0  0
  126.8590  113.2660  131.8300 C   0  0  0  0  0  0  0  0  0  0  0  0
  127.2220  115.7430  131.5700 C   0  0  0  0  0  0  0  0  0  0  0  0
  128.1020  114.5430  133.5620 C   0  0  0  0  0  0  0  0  0  0  0  0
  130.3990  114.1520  131.8720 C   0  0  0  0  0  0  0  0  0  0  0  0
  131.5830  113.9060  131.1690 C   0  0  0  0  0  0  0  0  0  0  0  0
  130.3320  116.3635  132.8153 H   0  0  0  0  0  0  0  0  0  0  0  0
  129.3132  117.5625  131.9486 H   0  0  0  0  0  0  0  0  0  0  0  0
  131.1011  117.7361  131.9486 H   0  0  0  0  0  0  0  0  0  0  0  0
  128.6755  116.9630  134.7308 H   0  0  0  0  0  0  0  0  0  0  0  0
  130.7332  116.7304  138.8915 H   0  0  0  0  0  0  0  0  0  0  0  0
  130.6865  115.8324  137.3365 H   0  0  0  0  0  0  0  0  0  0  0  0
  130.6938  117.6287  137.3365 H   0  0  0  0  0  0  0  0  0  0  0  0
  127.9779  114.8180  138.0840 H   0  0  0  0  0  0  0  0  0  0  0  0
  127.4300  115.7782  136.6681 H   0  0  0  0  0  0  0  0  0  0  0  0
  129.0629  115.0297  136.6681 H   0  0  0  0  0  0  0  0  0  0  0  0
  129.8946  120.4160  137.0386 H   0  0  0  0  0  0  0  0  0  0  0  0
  131.4333  121.1074  135.1983 H   0  0  0  0  0  0  0  0  0  0  0  0
  130.1954  120.7084  131.8878 H   0  0  0  0  0  0  0  0  0  0  0  0
  131.6285  121.7094  132.2757 H   0  0  0  0  0  0  0  0  0  0  0  0
  131.0656  120.0803  129.8994 H   0  0  0  0  0  0  0  0  0  0  0  0
  132.3627  121.3185  130.1888 H   0  0  0  0  0  0  0  0  0  0  0  0
  133.9118  119.7508  130.8717 H   0  0  0  0  0  0  0  0  0  0  0  0
  132.6405  118.5730  131.3927 H   0  0  0  0  0  0  0  0  0  0  0  0
  132.0444  118.3813  128.8902 H   0  0  0  0  0  0  0  0  0  0  0  0
  133.6285  119.2015  128.5904 H   0  0  0  0  0  0  0  0  0  0  0  0
  134.7476  117.2947  128.9134 H   0  0  0  0  0  0  0  0  0  0  0  0
  133.9237  117.0596  130.5213 H   0  0  0  0  0  0  0  0  0  0  0  0
  132.1062  115.8818  129.5117 H   0  0  0  0  0  0  0  0  0  0  0  0
  132.6900  116.2823  127.8532 H   0  0  0  0  0  0  0  0  0  0  0  0
  134.8310  114.9190  130.7325 H   0  0  0  0  0  0  0  0  0  0  0  0
  135.7358  114.1002  129.4143 H   0  0  0  0  0  0  0  0  0  0  0  0
  135.5715  115.8890  129.4143 H   0  0  0  0  0  0  0  0  0  0  0  0
  130.2619  113.4112  128.0614 H   0  0  0  0  0  0  0  0  0  0  0  0
  128.1586  113.8571  129.3194 H   0  0  0  0  0  0  0  0  0  0  0  0
  126.5278  112.8850  132.8073 H   0  0  0  0  0  0  0  0  0  0  0  0
  125.9893  113.6345  131.2662 H   0  0  0  0  0  0  0  0  0  0  0  0
  127.3450  112.4561  131.2662 H   0  0  0  0  0  0  0  0  0  0  0  0
  126.9315  116.3420  132.4457 H   0  0  0  0  0  0  0  0  0  0  0  0
  127.9469  116.3066  130.9643 H   0  0  0  0  0  0  0  0  0  0  0  0
  126.3306  115.5229  130.9643 H   0  0  0  0  0  0  0  0  0  0  0  0
  127.2491  114.1076  134.1033 H   0  0  0  0  0  0  0  0  0  0  0  0
  129.0219  114.0042  133.8330 H   0  0  0  0  0  0  0  0  0  0  0  0
  128.2052  115.6041  133.8330 H   0  0  0  0  0  0  0  0  0  0  0  0
  130.4483  114.3519  132.9526 H   0  0  0  0  0  0  0  0  0  0  0  0
  132.5487  113.8982  131.6956 H   0  0  0  0  0  0  0  0  0  0  0  0
  1  2  1  0
  2  3  2  0
  3  4  1  0
  4  5  1  0
  5  6  2  0
  5  7  2  0
  5  8  1  0
  8  9  1  0
  8 10  1  0
  4 11  2  0
 11 12  1  0
 12 13  2  0
 13 14  1  0
 14 15  1  0
 15 16  1  0
 16 17  1  0
 17 18  1  0
 18 19  1  0
 19 20  1  0
 20 21  1  0
 21 22  1  0
 21 23  1  0
 23 24  2  0
 23 25  2  0
 23 26  1  0
 26 27  2  0
 27 28  1  0
 28 29  2  0
 29 30  1  0
 30 31  1  0
 30 32  1  0
 30 33  1  0
 29 34  1  0
 34 35  2  0
 13  2  1  0
 35 26  1  0
  1 36  1  0
  1 37  1  0
  1 38  1  0
  3 39  1  0
  9 40  1  0
  9 41  1  0
  9 42  1  0
 10 43  1  0
 10 44  1  0
 10 45  1  0
 11 46  1  0
 12 47  1  0
 15 48  1  0
 15 49  1  0
 16 50  1  0
 16 51  1  0
 17 52  1  0
 17 53  1  0
 18 54  1  0
 18 55  1  0
 19 56  1  0
 19 57  1  0
 20 58  1  0
 20 59  1  0
 22 60  1  0
 22 61  1  0
 22 62  1  0
 27 63  1  0
 28 64  1  0
 31 65  1  0
 31 66  1  0
 31 67  1  0
 32 68  1  0
 32 69  1  0
 32 70  1  0
 33 71  1  0
 33 72  1  0
 33 73  1  0
 34 74  1  0
 35 75  1  0
M  END
$$$$

     RDKit          3D

 75 76  0  0  0  0  0  0  0  0999 V2000
  131.1440  121.2210  133.9000 C   0  0  0  0  0  0  0  0  0  0  0  0
  130.6680  119.8640  134.3420 C   0  0  0  0  0  0  0  0  0  0  0  0
  130.5680  119.5740  135.7110 C   0  0  0  0  0  0  0  0  0  0  0  0
  130.1260  118.3150  136.1240 C   0  0  0  0  0  0  0  0  0  0  0  0
  129.9930  117.9340  137.8520 S   0  0  0  0  0  6  0  0  0  0  0  0
  130.6020  116.6370  138.0520 O   0  0  0  0  0  0  0  0  0  0  0  0
  130.4180  119.0880  138.6160 O   0  0  0  0  0  0  0  0  0  0  0  0
  128.3000  117.7730  138.0730 N   0  0  0  0  0  0  0  0  0  0  0  0
  127.8180  116.3790  138.1960 C   0  0  0  0  0  0  0  0  0  0  0  0
  127.5170  118.5290  137.0680 C   0  0  0  0  0  0  0  0  0  0  0  0
  129.7960  117.3330  135.1880 C   0  0  0  0  0  0  0  0  0  0  0  0
  129.8960  117.6180  133.8240 C   0  0  0  0  0  0  0  0  0  0  0  0
  130.3310  118.8770  133.3930 C   0  0  0  0  0  0  0  0  0  0  0  0
  130.4570  119.2540  132.0820 O   0  0  0  0  0  0  0  0  0  0  0  0
  131.4730  118.6240  131.3050 C   0  0  0  0  0  0  0  0  0  0  0  0
  131.8080  119.5240  130.1160 C   0  0  0  0  0  0  0  0  0  0  0  0
  132.7570  118.8430  129.1260 C   0  0  0  0  0  0  0  0  0  0  0  0
  134.1650  118.7070  129.7110 C   0  0  0  0  0  0  0  0  0  0  0  0
  134.7810  117.3500  129.3590 C   0  0  0  0  0  0  0  0  0  0  0  0
  133.7350  116.2490  129.1800 C   0  0  0  0  0  0  0  0  0  0  0  0
  134.3940  114.9390  128.9650 N   0  0  0  0  0  0  0  0  0  0  0  0
  135.4910  114.6560  129.9030 C   0  0  0  0  0  0  0  0  0  0  0  0
  133.4170  113.6270  128.4960 S   0  0  0  0  0  6  0  0  0  0  0  0
  134.0370  112.4100  128.9770 O   0  0  0  0  0  0  0  0  0  0  0  0
  133.0810  113.7900  127.0980 O   0  0  0  0  0  0  0  0  0  0  0  0
  131.9260  113.8690  129.4400 C   0  0  0  0  0  0  0  0  0  0  0  0
  131.9900  114.4310  130.7140 C   0  0  0  0  0  0  0  0  0  0  0  0
  130.8120  114.6460  131.4400 C   0  0  0  0  0  0  0  0  0  0  0  0
  129.5530  114.3200  130.9050 C   0  0  0  0  0  0  0  0  0  0  0  0
  128.2400  114.5470  131.6770 C   0  0  0  0  0  0  0  0  0  0  0  0
  127.7330  115.9850  131.4300 C   0  0  0  0  0  0  0  0  0  0  0  0
  128.4860  114.3480  133.1870 C   0  0  0  0  0  0  0  0  0  0  0  0
  127.1010  113.5870  131.2680 C   0  0  0  0  0  0  0  0  0  0  0  0
  129.5200  113.7810  129.6020 C   0  0  0  0  0  0  0  0  0  0  0  0
  130.6910  113.5640  128.8690 C   0  0  0  0  0  0  0  0  0  0  0  0
  131.3609  121.8392  134.7836 H   0  0  0  0  0  0  0  0  0  0  0  0
  132.0571  121.1107  133.2966 H   0  0  0  0  0  0  0  0  0  0  0  0
  130.3621  121.7053  133.2966 H   0  0  0  0  0  0  0  0  0  0  0  0
  130.8370  120.3361  136.4572 H   0  0  0  0  0  0  0  0  0  0  0  0
  127.7268  116.1151  139.2600 H   0  0  0  0  0  0  0  0  0  0  0  0
  126.8357  116.2864  137.7097 H   0  0  0  0  0  0  0  0  0  0  0  0
  128.5333  115.6994  137.7097 H   0  0  0  0  0  0  0  0  0  0  0  0
  126.8171  119.2048  137.5812 H   0  0  0  0  0  0  0  0  0  0  0  0
  128.2001  119.1179  136.4383 H   0  0  0  0  0  0  0  0  0  0  0  0
  126.9524  117.8256  136.4383 H   0  0  0  0  0  0  0  0  0  0  0  0
  129.4592  116.3407  135.5226 H   0  0  0  0  0  0  0  0  0  0  0  0
  129.6313  116.8484  133.0840 H   0  0  0  0  0  0  0  0  0  0  0  0
  132.3718  118.4750  131.9215 H   0  0  0  0  0  0  0  0  0  0  0  0
  131.1194  117.6458  130.9472 H   0  0  0  0  0  0  0  0  0  0  0  0
  130.8754  119.7819  129.5928 H   0  0  0  0  0  0  0  0  0  0  0  0
  132.3108  120.4225  130.5030 H   0  0  0  0  0  0  0  0  0  0  0  0
  132.3691  117.8414  128.8886 H   0  0  0  0  0  0  0  0  0  0  0  0
  132.8157  119.4621  128.2186 H   0  0  0  0  0  0  0  0  0  0  0  0
  134.8015  119.5066  129.3042 H   0  0  0  0  0  0  0  0  0  0  0  0
  134.0968  118.7856  130.8061 H   0  0  0  0  0  0  0  0  0  0  0  0
  135.3453  117.4537  128.4205 H   0  0  0  0  0  0  0  0  0  0  0  0
  135.4299  117.0552  130.1969 H   0  0  0  0  0  0  0  0  0  0  0  0
  133.1076  116.1952  130.0819 H   0  0  0  0  0  0  0  0  0  0  0  0
  133.1159  116.4849  128.3019 H   0  0  0  0  0  0  0  0  0  0  0  0
  135.1240  114.7507  130.9357 H   0  0  0  0  0  0  0  0  0  0  0  0
  135.8603  113.6332  129.7374 H   0  0  0  0  0  0  0  0  0  0  0  0
  136.3090  115.3725  129.7374 H   0  0  0  0  0  0  0  0  0  0  0  0
  132.9630  114.7048  131.1478 H   0  0  0  0  0  0  0  0  0  0  0  0
  130.8727  115.0788  132.4495 H   0  0  0  0  0  0  0  0  0  0  0  0
  127.5575  116.4828  132.3951 H   0  0  0  0  0  0  0  0  0  0  0  0
  128.4873  116.5468  130.8595 H   0  0  0  0  0  0  0  0  0  0  0  0
  126.7932  115.9495  130.8595 H   0  0  0  0  0  0  0  0  0  0  0  0
  127.7553  114.9391  133.7586 H   0  0  0  0  0  0  0  0  0  0  0  0
  128.3742  113.2832  133.4395 H   0  0  0  0  0  0  0  0  0  0  0  0
  129.5039  114.6798  133.4395 H   0  0  0  0  0  0  0  0  0  0  0  0
  126.6207  113.1822  132.1710 H   0  0  0  0  0  0  0  0  0  0  0  0
  126.3568  114.1344  130.6709 H   0  0  0  0  0  0  0  0  0  0  0  0
  127.5144  112.7609  130.6709 H   0  0  0  0  0  0  0  0  0  0  0  0
  128.5497  113.5251  129.1515 H   0  0  0  0  0  0  0  0  0  0  0  0
  130.6382  113.1555  127.8490 H   0  0  0  0  0  0  0  0  0  0  0  0
  1  2  1  0
  2  3  2  0
  3  4  1  0
  4  5  1  0
  5  6  2  0
  5  7  2  0
  5  8  1  0
  8  9  1  0
  8 10  1  0
  4 11  2  0
 11 12  1  0
 12 13  2  0
 13 14  1  0
 14 15  1  0
 15 16  1  0
 16 17  1  0
 17 18  1  0
 18 19  1  0
 19 20  1  0
 20 21  1  0
 21 22  1  0
 21 23  1  0
 23 24  2  0
 23 25  2  0
 23 26  1  0
 26 27  2  0
 27 28  1  0
 28 29  2  0
 29 30  1  0
 30 31  1  0
 30 32  1  0
 30 33  1  0
 29 34  1  0
 34 35  2  0
 13  2  1  0
 35 26  1  0
  1 36  1  0
  1 37  1  0
  1 38  1  0
  3 39  1  0
  9 40  1  0
  9 41  1  0
  9 42  1  0
 10 43  1  0
 10 44  1  0
 10 45  1  0
 11 46  1  0
 12 47  1  0
 15 48  1  0
 15 49  1  0
 16 50  1  0
 16 51  1  0
 17 52  1  0
 17 53  1  0
 18 54  1  0
 18 55  1  0
 19 56  1  0
 19 57  1  0
 20 58  1  0
 20 59  1  0
 22 60  1  0
 22 61  1  0
 22 62  1  0
 27 63  1  0
 28 64  1  0
 31 65  1  0
 31 66  1  0
 31 67  1  0
 32 68  1  0
 32 69  1  0
 32 70  1  0
 33 71  1  0
 33 72  1  0
 33 73  1  0
 34 74  1  0
 35 75  1  0
M  END
$$$$

     RDKit          3D

 75 76  0  0  0  0  0  0  0  0999 V2000
  130.6770  117.4310  132.1630 C   0  0  0  0  0  0  0  0  0  0  0  0
  130.4520  118.2870  133.3780 C   0  0  0  0  0  0  0  0  0  0  0  0
  129.5110  117.8920  134.3420 C   0  0  0  0  0  0  0  0  0  0  0  0
  129.3000  118.6870  135.4720 C   0  0  0  0  0  0  0  0  0  0  0  0
  128.1150  118.1990  136.7000 S   0  0  0  0  0  6  0  0  0  0  0  0
  127.6630  119.4060  137.3590 O   0  0  0  0  0  0  0  0  0  0  0  0
  127.1750  117.2760  136.0990 O   0  0  0  0  0  0  0  0  0  0  0  0
  129.0670  117.3050  137.8100 N   0  0  0  0  0  0  0  0  0  0  0  0
  128.3240  116.2970  138.5990 C   0  0  0  0  0  0  0  0  0  0  0  0
  129.8930  118.1720  138.6830 C   0  0  0  0  0  0  0  0  0  0  0  0
  130.0040  119.8780  135.6480 C   0  0  0  0  0  0  0  0  0  0  0  0
  130.9400  120.2750  134.6900 C   0  0  0  0  0  0  0  0  0  0  0  0
  131.1690  119.4870  133.5540 C   0  0  0  0  0  0  0  0  0  0  0  0
  132.0680  119.7870  132.5640 O   0  0  0  0  0  0  0  0  0  0  0  0
  131.7570  120.8720  131.6920 C   0  0  0  0  0  0  0  0  0  0  0  0
  132.0050  120.4270  130.2510 C   0  0  0  0  0  0  0  0  0  0  0  0
  133.1060  119.3680  130.1550 C   0  0  0  0  0  0  0  0  0  0  0  0
  132.8000  118.3470  129.0570 C   0  0  0  0  0  0  0  0  0  0  0  0
  133.1830  116.9300  129.4950 C   0  0  0  0  0  0  0  0  0  0  0  0
  133.1260  115.9170  128.3510 C   0  0  0  0  0  0  0  0  0  0  0  0
  133.9310  114.7180  128.6820 N   0  0  0  0  0  0  0  0  0  0  0  0
  134.9820  114.9560  129.6840 C   0  0  0  0  0  0  0  0  0  0  0  0
  133.1330  113.2160  128.7380 S   0  0  0  0  0  6  0  0  0  0  0  0
  133.9350  112.3090  129.5330 O   0  0  0  0  0  0  0  0  0  0  0  0
  132.7270  112.8690  127.3930 O   0  0  0  0  0  0  0  0  0  0  0  0
  131.6570  113.5720  129.6700 C   0  0  0  0  0  0  0  0  0  0  0  0
  131.7360  113.7900  131.0450 C   0  0  0  0  0  0  0  0  0  0  0  0
  130.5780  114.0980  131.7680 C   0  0  0  0  0  0  0  0  0  0  0  0
  129.3270  114.2080  131.1340 C   0  0  0  0  0  0  0  0  0  0  0  0
  128.0360  114.5480  131.9020 C   0  0  0  0  0  0  0  0  0  0  0  0
  128.3160  114.5430  133.4200 C   0  0  0  0  0  0  0  0  0  0  0  0
  126.9520  113.4980  131.5820 C   0  0  0  0  0  0  0  0  0  0  0  0
  127.4480  115.9340  131.5530 C   0  0  0  0  0  0  0  0  0  0  0  0
  129.2860  114.0110  129.7380 C   0  0  0  0  0  0  0  0  0  0  0  0
  130.4380  113.7040  129.0080 C   0  0  0  0  0  0  0  0  0  0  0  0
  130.9450  116.4115  132.4773 H   0  0  0  0  0  0  0  0  0  0  0  0
  129.7567  117.3992  131.5613 H   0  0  0  0  0  0  0  0  0  0  0  0
  131.4940  117.8559  131.5613 H   0  0  0  0  0  0  0  0  0  0  0  0
  128.9418  116.9602  134.2085 H   0  0  0  0  0  0  0  0  0  0  0  0
  128.4680  116.4923  139.6719 H   0  0  0  0  0  0  0  0  0  0  0  0
  127.2530  116.3577  138.3557 H   0  0  0  0  0  0  0  0  0  0  0  0
  128.6989  115.2919  138.3557 H   0  0  0  0  0  0  0  0  0  0  0  0
  129.6760  117.9442  139.7370 H   0  0  0  0  0  0  0  0  0  0  0  0
  130.9584  117.9882  138.4800 H   0  0  0  0  0  0  0  0  0  0  0  0
  129.6578  119.2272  138.4800 H   0  0  0  0  0  0  0  0  0  0  0  0
  129.8232  120.5013  136.5362 H   0  0  0  0  0  0  0  0  0  0  0  0
  131.5004  121.2114  134.8281 H   0  0  0  0  0  0  0  0  0  0  0  0
  130.7014  121.1558  131.8156 H   0  0  0  0  0  0  0  0  0  0  0  0
  132.3899  121.7393  131.9313 H   0  0  0  0  0  0  0  0  0  0  0  0
  131.0731  120.0072  129.8444 H   0  0  0  0  0  0  0  0  0  0  0  0
  132.3313  121.3068  129.6770 H   0  0  0  0  0  0  0  0  0  0  0  0
  134.0613  119.8637  129.9275 H   0  0  0  0  0  0  0  0  0  0  0  0
  133.1627  118.8374  131.1169 H   0  0  0  0  0  0  0  0  0  0  0  0
  131.7236  118.3742  128.8318 H   0  0  0  0  0  0  0  0  0  0  0  0
  133.3898  118.6071  128.1657 H   0  0  0  0  0  0  0  0  0  0  0  0
  134.2078  116.9511  129.8942 H   0  0  0  0  0  0  0  0  0  0  0  0
  132.4539  116.6112  130.2545 H   0  0  0  0  0  0  0  0  0  0  0  0
  132.0809  115.6171  128.1842 H   0  0  0  0  0  0  0  0  0  0  0  0
  133.5356  116.3819  127.4421 H   0  0  0  0  0  0  0  0  0  0  0  0
  134.5551  114.8593  130.6932 H   0  0  0  0  0  0  0  0  0  0  0  0
  135.7866  114.2173  129.5539 H   0  0  0  0  0  0  0  0  0  0  0  0
  135.3899  115.9693  129.5539 H   0  0  0  0  0  0  0  0  0  0  0  0
  132.7056  113.7201  131.5598 H   0  0  0  0  0  0  0  0  0  0  0  0
  130.6474  114.2573  132.8542 H   0  0  0  0  0  0  0  0  0  0  0  0
  127.3628  114.5600  133.9687 H   0  0  0  0  0  0  0  0  0  0  0  0
  128.8763  113.6347  133.6865 H   0  0  0  0  0  0  0  0  0  0  0  0
  128.9084  115.4307  133.6865 H   0  0  0  0  0  0  0  0  0  0  0  0
  126.5399  113.0988  132.5205 H   0  0  0  0  0  0  0  0  0  0  0  0
  126.1467  113.9684  130.9987 H   0  0  0  0  0  0  0  0  0  0  0  0
  127.3965  112.6782  130.9987 H   0  0  0  0  0  0  0  0  0  0  0  0
  127.2170  116.4784  132.4805 H   0  0  0  0  0  0  0  0  0  0  0  0
  128.1810  116.5058  130.9650 H   0  0  0  0  0  0  0  0  0  0  0  0
  126.5274  115.8043  130.9650 H   0  0  0  0  0  0  0  0  0  0  0  0
  128.3246  114.1011  129.2111 H   0  0  0  0  0  0  0  0  0  0  0  0
  130.3825  113.5675  127.9179 H   0  0  0  0  0  0  0  0  0  0  0  0
  1  2  1  0
  2  3  2  0
  3  4  1  0
  4  5  1  0
  5  6  2  0
  5  7  2  0
  5  8  1  0
  8  9  1  0
  8 10  1  0
  4 11  2  0
 11 12  1  0
 12 13  2  0
 13 14  1  0
 14 15  1  0
 15 16  1  0
 16 17  1  0
 17 18  1  0
 18 19  1  0
 19 20  1  0
 20 21  1  0
 21 22  1  0
 21 23  1  0
 23 24  2  0
 23 25  2  0
 23 26  1  0
 26 27  2  0
 27 28  1  0
 28 29  2  0
 29 30  1  0
 30 31  1  0
 30 32  1  0
 30 33  1  0
 29 34  1  0
 34 35  2  0
 13  2  1  0
 35 26  1  0
  1 36  1  0
  1 37  1  0
  1 38  1  0
  3 39  1  0
  9 40  1  0
  9 41  1  0
  9 42  1  0
 10 43  1  0
 10 44  1  0
 10 45  1  0
 11 46  1  0
 12 47  1  0
 15 48  1  0
 15 49  1  0
 16 50  1  0
 16 51  1  0
 17 52  1  0
 17 53  1  0
 18 54  1  0
 18 55  1  0
 19 56  1  0
 19 57  1  0
 20 58  1  0
 20 59  1  0
 22 60  1  0
 22 61  1  0
 22 62  1  0
 27 63  1  0
 28 64  1  0
 31 65  1  0
 31 66  1  0
 31 67  1  0
 32 68  1  0
 32 69  1  0
 32 70  1  0
 33 71  1  0
 33 72  1  0
 33 73  1  0
 34 74  1  0
 35 75  1  0
M  END
$$$$

     RDKit          3D

 75 76  0  0  0  0  0  0  0  0999 V2000
  133.4650  119.3640  129.3160 C   0  0  0  0  0  0  0  0  0  0  0  0
  132.7830  118.1070  129.7840 C   0  0  0  0  0  0  0  0  0  0  0  0
  133.1950  116.8640  129.2810 C   0  0  0  0  0  0  0  0  0  0  0  0
  132.5630  115.6950  129.7130 C   0  0  0  0  0  0  0  0  0  0  0  0
  133.0750  114.1160  129.0860 S   0  0  0  0  0  6  0  0  0  0  0  0
  132.0160  113.1750  129.3850 O   0  0  0  0  0  0  0  0  0  0  0  0
  133.5650  114.2890  127.7350 O   0  0  0  0  0  0  0  0  0  0  0  0
  134.4240  113.7370  130.0730 N   0  0  0  0  0  0  0  0  0  0  0  0
  135.7170  114.2780  129.5950 C   0  0  0  0  0  0  0  0  0  0  0  0
  134.5230  112.2900  130.3760 C   0  0  0  0  0  0  0  0  0  0  0  0
  131.5150  115.7500  130.6330 C   0  0  0  0  0  0  0  0  0  0  0  0
  131.1020  116.9870  131.1350 C   0  0  0  0  0  0  0  0  0  0  0  0
  131.7280  118.1670  130.7170 C   0  0  0  0  0  0  0  0  0  0  0  0
  131.4000  119.4230  131.1550 O   0  0  0  0  0  0  0  0  0  0  0  0
  131.7980  119.7920  132.4740 C   0  0  0  0  0  0  0  0  0  0  0  0
  131.1280  118.8440  133.4690 C   0  0  0  0  0  0  0  0  0  0  0  0
  130.7090  119.5590  134.7560 C   0  0  0  0  0  0  0  0  0  0  0  0
  130.8060  118.6260  135.9650 C   0  0  0  0  0  0  0  0  0  0  0  0
  130.1350  119.2450  137.1960 C   0  0  0  0  0  0  0  0  0  0  0  0
  129.6860  118.2000  138.2170 C   0  0  0  0  0  0  0  0  0  0  0  0
  128.2420  117.9080  138.0570 N   0  0  0  0  0  0  0  0  0  0  0  0
  127.5590  118.7690  137.0790 C   0  0  0  0  0  0  0  0  0  0  0  0
  127.7480  116.2810  138.1350 S   0  0  0  0  0  6  0  0  0  0  0  0
  126.3810  116.2480  138.6120 O   0  0  0  0  0  0  0  0  0  0  0  0
  128.7880  115.5230  138.7980 O   0  0  0  0  0  0  0  0  0  0  0  0
  127.7230  115.7780  136.4260 C   0  0  0  0  0  0  0  0  0  0  0  0
  126.5140  115.7170  135.7340 C   0  0  0  0  0  0  0  0  0  0  0  0
  126.5030  115.3490  134.3840 C   0  0  0  0  0  0  0  0  0  0  0  0
  127.6930  115.0520  133.6960 C   0  0  0  0  0  0  0  0  0  0  0  0
  127.7140  114.6480  132.2100 C   0  0  0  0  0  0  0  0  0  0  0  0
  127.7110  115.9140  131.3270 C   0  0  0  0  0  0  0  0  0  0  0  0
  126.4660  113.8000  131.8870 C   0  0  0  0  0  0  0  0  0  0  0  0
  128.9510  113.8150  131.8070 C   0  0  0  0  0  0  0  0  0  0  0  0
  128.9020  115.1530  134.4170 C   0  0  0  0  0  0  0  0  0  0  0  0
  128.9220  115.5200  135.7650 C   0  0  0  0  0  0  0  0  0  0  0  0
  133.7850  119.9538  130.1876 H   0  0  0  0  0  0  0  0  0  0  0  0
  134.3437  119.1002  128.7091 H   0  0  0  0  0  0  0  0  0  0  0  0
  132.7648  119.9569  128.7091 H   0  0  0  0  0  0  0  0  0  0  0  0
  134.0136  116.8097  128.5483 H   0  0  0  0  0  0  0  0  0  0  0  0
  136.3459  114.5412  130.4582 H   0  0  0  0  0  0  0  0  0  0  0  0
  136.2294  113.5188  128.9859 H   0  0  0  0  0  0  0  0  0  0  0  0
  135.5361  115.1759  128.9859 H   0  0  0  0  0  0  0  0  0  0  0  0
  134.5330  112.1435  131.4662 H   0  0  0  0  0  0  0  0  0  0  0  0
  133.6587  111.7648  129.9434 H   0  0  0  0  0  0  0  0  0  0  0  0
  135.4508  111.8874  129.9434 H   0  0  0  0  0  0  0  0  0  0  0  0
  131.0172  114.8255  130.9609 H   0  0  0  0  0  0  0  0  0  0  0  0
  130.2793  117.0337  131.8637 H   0  0  0  0  0  0  0  0  0  0  0  0
  132.8913  119.7141  132.5666 H   0  0  0  0  0  0  0  0  0  0  0  0
  131.4958  120.8292  132.6813 H   0  0  0  0  0  0  0  0  0  0  0  0
  130.2339  118.4098  132.9977 H   0  0  0  0  0  0  0  0  0  0  0  0
  131.8571  118.0653  133.7372 H   0  0  0  0  0  0  0  0  0  0  0  0
  131.3690  120.4242  134.9168 H   0  0  0  0  0  0  0  0  0  0  0  0
  129.6632  119.8829  134.6494 H   0  0  0  0  0  0  0  0  0  0  0  0
  130.3086  117.6746  135.7252 H   0  0  0  0  0  0  0  0  0  0  0  0
  131.8692  118.4601  136.1934 H   0  0  0  0  0  0  0  0  0  0  0  0
  130.8507  119.9250  137.6812 H   0  0  0  0  0  0  0  0  0  0  0  0
  129.2360  119.7761  136.8500 H   0  0  0  0  0  0  0  0  0  0  0  0
  130.2617  117.2749  138.0658 H   0  0  0  0  0  0  0  0  0  0  0  0
  129.8604  118.5928  139.2296 H   0  0  0  0  0  0  0  0  0  0  0  0
  126.9603  119.5237  137.6100 H   0  0  0  0  0  0  0  0  0  0  0  0
  128.3066  119.2717  136.4479 H   0  0  0  0  0  0  0  0  0  0  0  0
  126.8994  118.1553  136.4479 H   0  0  0  0  0  0  0  0  0  0  0  0
  125.5716  115.9575  136.2478 H   0  0  0  0  0  0  0  0  0  0  0  0
  125.5433  115.2908  133.8496 H   0  0  0  0  0  0  0  0  0  0  0  0
  127.7089  116.8080  131.9679 H   0  0  0  0  0  0  0  0  0  0  0  0
  128.6091  115.9202  130.6919 H   0  0  0  0  0  0  0  0  0  0  0  0
  126.8128  115.9160  130.6919 H   0  0  0  0  0  0  0  0  0  0  0  0
  125.9899  113.4765  132.8244 H   0  0  0  0  0  0  0  0  0  0  0  0
  125.7545  114.4024  131.3032 H   0  0  0  0  0  0  0  0  0  0  0  0
  126.7640  112.9166  131.3032 H   0  0  0  0  0  0  0  0  0  0  0  0
  129.4690  113.4662  132.7125 H   0  0  0  0  0  0  0  0  0  0  0  0
  128.6307  112.9479  131.2108 H   0  0  0  0  0  0  0  0  0  0  0  0
  129.6341  114.4378  131.2108 H   0  0  0  0  0  0  0  0  0  0  0  0
  129.8516  114.9376  133.9053 H   0  0  0  0  0  0  0  0  0  0  0  0
  129.8787  115.6047  136.3012 H   0  0  0  0  0  0  0  0  0  0  0  0
  1  2  1  0
  2  3  2  0
  3  4  1  0
  4  5  1  0
  5  6  2  0
  5  7  2  0
  5  8  1  0
  8  9  1  0
  8 10  1  0
  4 11  2  0
 11 12  1  0
 12 13  2  0
 13 14  1  0
 14 15  1  0
 15 16  1  0
 16 17  1  0
 17 18  1  0
 18 19  1  0
 19 20  1  0
 20 21  1  0
 21 22  1  0
 21 23  1  0
 23 24  2  0
 23 25  2  0
 23 26  1  0
 26 27  2  0
 27 28  1  0
 28 29  2  0
 29 30  1  0
 30 31  1  0
 30 32  1  0
 30 33  1  0
 29 34  1  0
 34 35  2  0
 13  2  1  0
 35 26  1  0
  1 36  1  0
  1 37  1  0
  1 38  1  0
  3 39  1  0
  9 40  1  0
  9 41  1  0
  9 42  1  0
 10 43  1  0
 10 44  1  0
 10 45  1  0
 11 46  1  0
 12 47  1  0
 15 48  1  0
 15 49  1  0
 16 50  1  0
 16 51  1  0
 17 52  1  0
 17 53  1  0
 18 54  1  0
 18 55  1  0
 19 56  1  0
 19 57  1  0
 20 58  1  0
 20 59  1  0
 22 60  1  0
 22 61  1  0
 22 62  1  0
 27 63  1  0
 28 64  1  0
 31 65  1  0
 31 66  1  0
 31 67  1  0
 32 68  1  0
 32 69  1  0
 32 70  1  0
 33 71  1  0
 33 72  1  0
 33 73  1  0
 34 74  1  0
 35 75  1  0
M  END
$$$$

     RDKit          3D

 75 76  0  0  0  0  0  0  0  0999 V2000
  132.8420  120.6390  130.0600 C   0  0  0  0  0  0  0  0  0  0  0  0
  132.3890  119.2410  130.3830 C   0  0  0  0  0  0  0  0  0  0  0  0
  132.9890  118.1500  129.7370 C   0  0  0  0  0  0  0  0  0  0  0  0
  132.5700  116.8510  130.0340 C   0  0  0  0  0  0  0  0  0  0  0  0
  133.3200  115.4600  129.2260 S   0  0  0  0  0  6  0  0  0  0  0  0
  132.7010  114.2680  129.7650 O   0  0  0  0  0  0  0  0  0  0  0  0
  133.3480  115.7110  127.8000 O   0  0  0  0  0  0  0  0  0  0  0  0
  134.9390  115.5250  129.7870 N   0  0  0  0  0  0  0  0  0  0  0  0
  135.7280  116.6720  129.2820 C   0  0  0  0  0  0  0  0  0  0  0  0
  135.6620  114.2460  129.5960 C   0  0  0  0  0  0  0  0  0  0  0  0
  131.5490  116.6250  130.9590 C   0  0  0  0  0  0  0  0  0  0  0  0
  130.9500  117.7100  131.6040 C   0  0  0  0  0  0  0  0  0  0  0  0
  131.3620  119.0180  131.3220 C   0  0  0  0  0  0  0  0  0  0  0  0
  130.8410  120.1440  131.9030 O   0  0  0  0  0  0  0  0  0  0  0  0
  129.6900  119.9920  132.7310 C   0  0  0  0  0  0  0  0  0  0  0  0
  130.0110  120.5380  134.1210 C   0  0  0  0  0  0  0  0  0  0  0  0
  130.8590  119.5640  134.9430 C   0  0  0  0  0  0  0  0  0  0  0  0
  130.2970  119.3970  136.3580 C   0  0  0  0  0  0  0  0  0  0  0  0
  128.8740  119.9550  136.4580 C   0  0  0  0  0  0  0  0  0  0  0  0
  128.0020  119.1870  137.4510 C   0  0  0  0  0  0  0  0  0  0  0  0
  128.6380  117.8980  137.8090 N   0  0  0  0  0  0  0  0  0  0  0  0
  129.6210  117.9950  138.9000 C   0  0  0  0  0  0  0  0  0  0  0  0
  127.6760  116.4950  137.7560 S   0  0  0  0  0  6  0  0  0  0  0  0
  126.3010  116.8830  137.9940 O   0  0  0  0  0  0  0  0  0  0  0  0
  128.3150  115.4780  138.5630 O   0  0  0  0  0  0  0  0  0  0  0  0
  127.7930  115.9830  136.0540 C   0  0  0  0  0  0  0  0  0  0  0  0
  129.0430  115.8480  135.4500 C   0  0  0  0  0  0  0  0  0  0  0  0
  129.1310  115.4170  134.1210 C   0  0  0  0  0  0  0  0  0  0  0  0
  127.9800  115.1010  133.3770 C   0  0  0  0  0  0  0  0  0  0  0  0
  128.0440  114.6220  131.9140 C   0  0  0  0  0  0  0  0  0  0  0  0
  126.9080  113.6110  131.6480 C   0  0  0  0  0  0  0  0  0  0  0  0
  129.4030  113.9410  131.6520 C   0  0  0  0  0  0  0  0  0  0  0  0
  127.8940  115.7580  130.8780 C   0  0  0  0  0  0  0  0  0  0  0  0
  126.7330  115.2200  134.0260 C   0  0  0  0  0  0  0  0  0  0  0  0
  126.6360  115.6480  135.3530 C   0  0  0  0  0  0  0  0  0  0  0  0
  133.0210  121.1915  130.9942 H   0  0  0  0  0  0  0  0  0  0  0  0
  133.7725  120.5969  129.4748 H   0  0  0  0  0  0  0  0  0  0  0  0
  132.0637  121.1506  129.4748 H   0  0  0  0  0  0  0  0  0  0  0  0
  133.7871  118.3169  128.9987 H   0  0  0  0  0  0  0  0  0  0  0  0
  136.1238  117.2474  130.1319 H   0  0  0  0  0  0  0  0  0  0  0  0
  136.5631  116.3013  128.6695 H   0  0  0  0  0  0  0  0  0  0  0  0
  135.0832  117.3193  128.6695 H   0  0  0  0  0  0  0  0  0  0  0  0
  135.9067  113.8131  130.5772 H   0  0  0  0  0  0  0  0  0  0  0  0
  135.0262  113.5457  129.0345 H   0  0  0  0  0  0  0  0  0  0  0  0
  136.5899  114.4296  129.0345 H   0  0  0  0  0  0  0  0  0  0  0  0
  131.2182  115.5992  131.1786 H   0  0  0  0  0  0  0  0  0  0  0  0
  130.1496  117.5354  132.3381 H   0  0  0  0  0  0  0  0  0  0  0  0
  128.8470  120.5513  132.2992 H   0  0  0  0  0  0  0  0  0  0  0  0
  129.4158  118.9290  132.8001 H   0  0  0  0  0  0  0  0  0  0  0  0
  130.5631  121.4831  134.0116 H   0  0  0  0  0  0  0  0  0  0  0  0
  129.0598  120.6893  134.6524 H   0  0  0  0  0  0  0  0  0  0  0  0
  130.8668  118.5846  134.4423 H   0  0  0  0  0  0  0  0  0  0  0  0
  131.8788  119.9693  135.0192 H   0  0  0  0  0  0  0  0  0  0  0  0
  130.2818  118.3274  136.6142 H   0  0  0  0  0  0  0  0  0  0  0  0
  130.9394  119.9538  137.0560 H   0  0  0  0  0  0  0  0  0  0  0  0
  128.9307  121.0053  136.7800 H   0  0  0  0  0  0  0  0  0  0  0  0
  128.4100  119.8554  135.4656 H   0  0  0  0  0  0  0  0  0  0  0  0
  127.8709  119.7913  138.3608 H   0  0  0  0  0  0  0  0  0  0  0  0
  127.0255  118.9856  136.9863 H   0  0  0  0  0  0  0  0  0  0  0  0
  129.1008  117.9437  139.8679 H   0  0  0  0  0  0  0  0  0  0  0  0
  130.3366  117.1631  138.8238 H   0  0  0  0  0  0  0  0  0  0  0  0
  130.1603  118.9507  138.8238 H   0  0  0  0  0  0  0  0  0  0  0  0
  129.9571  116.0796  136.0164 H   0  0  0  0  0  0  0  0  0  0  0  0
  130.1202  115.3236  133.6491 H   0  0  0  0  0  0  0  0  0  0  0  0
  126.5047  113.2521  132.6064 H   0  0  0  0  0  0  0  0  0  0  0  0
  126.1078  114.1012  131.0740 H   0  0  0  0  0  0  0  0  0  0  0  0
  127.3020  112.7594  131.0740 H   0  0  0  0  0  0  0  0  0  0  0  0
  129.8835  113.7002  132.6117 H   0  0  0  0  0  0  0  0  0  0  0  0
  129.2449  113.0156  131.0787 H   0  0  0  0  0  0  0  0  0  0  0  0
  130.0497  114.6216  131.0787 H   0  0  0  0  0  0  0  0  0  0  0  0
  127.7673  116.7172  131.4014 H   0  0  0  0  0  0  0  0  0  0  0  0
  128.7943  115.8005  130.2475 H   0  0  0  0  0  0  0  0  0  0  0  0
  127.0135  115.5653  130.2475 H   0  0  0  0  0  0  0  0  0  0  0  0
  125.8148  114.9699  133.4743 H   0  0  0  0  0  0  0  0  0  0  0  0
  125.6528  115.7200  135.8409 H   0  0  0  0  0  0  0  0  0  0  0  0
  1  2  1  0
  2  3  2  0
  3  4  1  0
  4  5  1  0
  5  6  2  0
  5  7  2  0
  5  8  1  0
  8  9  1  0
  8 10  1  0
  4 11  2  0
 11 12  1  0
 12 13  2  0
 13 14  1  0
 14 15  1  0
 15 16  1  0
 16 17  1  0
 17 18  1  0
 18 19  1  0
 19 20  1  0
 20 21  1  0
 21 22  1  0
 21 23  1  0
 23 24  2  0
 23 25  2  0
 23 26  1  0
 26 27  2  0
 27 28  1  0
 28 29  2  0
 29 30  1  0
 30 31  1  0
 30 32  1  0
 30 33  1  0
 29 34  1  0
 34 35  2  0
 13  2  1  0
 35 26  1  0
  1 36  1  0
  1 37  1  0
  1 38  1  0
  3 39  1  0
  9 40  1  0
  9 41  1  0
  9 42  1  0
 10 43  1  0
 10 44  1  0
 10 45  1  0
 11 46  1  0
 12 47  1  0
 15 48  1  0
 15 49  1  0
 16 50  1  0
 16 51  1  0
 17 52  1  0
 17 53  1  0
 18 54  1  0
 18 55  1  0
 19 56  1  0
 19 57  1  0
 20 58  1  0
 20 59  1  0
 22 60  1  0
 22 61  1  0
 22 62  1  0
 27 63  1  0
 28 64  1  0
 31 65  1  0
 31 66  1  0
 31 67  1  0
 32 68  1  0
 32 69  1  0
 32 70  1  0
 33 71  1  0
 33 72  1  0
 33 73  1  0
 34 74  1  0
 35 75  1  0
M  END
$$$$

     RDKit          3D

 75 76  0  0  0  0  0  0  0  0999 V2000
  131.2980  121.6030  134.6600 C   0  0  0  0  0  0  0  0  0  0  0  0
  130.7250  120.2140  134.7330 C   0  0  0  0  0  0  0  0  0  0  0  0
  130.4280  119.6500  135.9830 C   0  0  0  0  0  0  0  0  0  0  0  0
  129.8960  118.3600  136.0540 C   0  0  0  0  0  0  0  0  0  0  0  0
  129.5150  117.6330  137.6270 S   0  0  0  0  0  6  0  0  0  0  0  0
  130.5830  116.7070  137.9400 O   0  0  0  0  0  0  0  0  0  0  0  0
  129.1420  118.6870  138.5480 O   0  0  0  0  0  0  0  0  0  0  0  0
  128.0990  116.7260  137.2910 N   0  0  0  0  0  0  0  0  0  0  0  0
  126.8540  117.5230  137.2050 C   0  0  0  0  0  0  0  0  0  0  0  0
  127.9360  115.5650  138.1960 C   0  0  0  0  0  0  0  0  0  0  0  0
  129.6680  117.6180  134.8930 C   0  0  0  0  0  0  0  0  0  0  0  0
  129.9620  118.1780  133.6480 C   0  0  0  0  0  0  0  0  0  0  0  0
  130.4910  119.4710  133.5590 C   0  0  0  0  0  0  0  0  0  0  0  0
  130.8070  120.1080  132.3870 O   0  0  0  0  0  0  0  0  0  0  0  0
  130.9330  119.3090  131.2120 C   0  0  0  0  0  0  0  0  0  0  0  0
  132.3970  118.8950  131.0580 C   0  0  0  0  0  0  0  0  0  0  0  0
  132.7710  118.6290  129.5980 C   0  0  0  0  0  0  0  0  0  0  0  0
  134.2880  118.6600  129.3990 C   0  0  0  0  0  0  0  0  0  0  0  0
  134.8740  117.2450  129.3870 C   0  0  0  0  0  0  0  0  0  0  0  0
  133.8090  116.1610  129.2170 C   0  0  0  0  0  0  0  0  0  0  0  0
  134.4450  114.8380  129.0170 N   0  0  0  0  0  0  0  0  0  0  0  0
  135.5340  114.5440  129.9610 C   0  0  0  0  0  0  0  0  0  0  0  0
  133.4460  113.5380  128.5590 S   0  0  0  0  0  6  0  0  0  0  0  0
  134.0400  112.3160  129.0570 O   0  0  0  0  0  0  0  0  0  0  0  0
  133.1200  113.6910  127.1560 O   0  0  0  0  0  0  0  0  0  0  0  0
  131.9540  113.8200  129.4910 C   0  0  0  0  0  0  0  0  0  0  0  0
  130.7150  113.7790  128.8540 C   0  0  0  0  0  0  0  0  0  0  0  0
  129.5440  113.9720  129.5960 C   0  0  0  0  0  0  0  0  0  0  0  0
  129.5860  114.1930  130.9840 C   0  0  0  0  0  0  0  0  0  0  0  0
  128.3160  114.4060  131.8290 C   0  0  0  0  0  0  0  0  0  0  0  0
  127.6880  115.7750  131.4880 C   0  0  0  0  0  0  0  0  0  0  0  0
  128.6790  114.3730  133.3280 C   0  0  0  0  0  0  0  0  0  0  0  0
  127.2260  113.3360  131.5980 C   0  0  0  0  0  0  0  0  0  0  0  0
  130.8530  114.1980  131.6040 C   0  0  0  0  0  0  0  0  0  0  0  0
  132.0280  114.0050  130.8700 C   0  0  0  0  0  0  0  0  0  0  0  0
  131.4569  121.9881  135.6781 H   0  0  0  0  0  0  0  0  0  0  0  0
  132.2583  121.5758  134.1243 H   0  0  0  0  0  0  0  0  0  0  0  0
  130.5978  122.2608  134.1243 H   0  0  0  0  0  0  0  0  0  0  0  0
  130.6134  120.2217  136.9043 H   0  0  0  0  0  0  0  0  0  0  0  0
  126.4950  117.7528  138.2190 H   0  0  0  0  0  0  0  0  0  0  0  0
  127.0553  118.4605  136.6660 H   0  0  0  0  0  0  0  0  0  0  0  0
  126.0868  116.9477  136.6660 H   0  0  0  0  0  0  0  0  0  0  0  0
  127.9838  115.9051  139.2410 H   0  0  0  0  0  0  0  0  0  0  0  0
  126.9622  115.0887  138.0096 H   0  0  0  0  0  0  0  0  0  0  0  0
  128.7410  114.8389  138.0096 H   0  0  0  0  0  0  0  0  0  0  0  0
  129.2594  116.5988  134.9589 H   0  0  0  0  0  0  0  0  0  0  0  0
  129.7767  117.5992  132.7311 H   0  0  0  0  0  0  0  0  0  0  0  0
  130.3021  118.4126  131.3041 H   0  0  0  0  0  0  0  0  0  0  0  0
  130.6102  119.8830  130.3309 H   0  0  0  0  0  0  0  0  0  0  0  0
  133.0362  119.7016  131.4463 H   0  0  0  0  0  0  0  0  0  0  0  0
  132.5454  117.9614  131.6205 H   0  0  0  0  0  0  0  0  0  0  0  0
  132.3912  117.6390  129.3053 H   0  0  0  0  0  0  0  0  0  0  0  0
  132.3226  119.4171  128.9752 H   0  0  0  0  0  0  0  0  0  0  0  0
  134.5142  119.1502  128.4406 H   0  0  0  0  0  0  0  0  0  0  0  0
  134.7377  119.2162  130.2347 H   0  0  0  0  0  0  0  0  0  0  0  0
  135.5888  117.1683  128.5545 H   0  0  0  0  0  0  0  0  0  0  0  0
  135.3596  117.0807  130.3602 H   0  0  0  0  0  0  0  0  0  0  0  0
  133.1789  116.1276  130.1181 H   0  0  0  0  0  0  0  0  0  0  0  0
  133.1959  116.3988  128.3352 H   0  0  0  0  0  0  0  0  0  0  0  0
  135.1629  114.6442  130.9916 H   0  0  0  0  0  0  0  0  0  0  0  0
  135.8927  113.5169  129.7987 H   0  0  0  0  0  0  0  0  0  0  0  0
  136.3609  115.2511  129.7987 H   0  0  0  0  0  0  0  0  0  0  0  0
  130.6576  113.5954  127.7709 H   0  0  0  0  0  0  0  0  0  0  0  0
  128.5712  113.9504  129.0829 H   0  0  0  0  0  0  0  0  0  0  0  0
  127.4434  116.3082  132.4185 H   0  0  0  0  0  0  0  0  0  0  0  0
  128.4030  116.3705  130.9013 H   0  0  0  0  0  0  0  0  0  0  0  0
  126.7703  115.6215  130.9013 H   0  0  0  0  0  0  0  0  0  0  0  0
  127.7617  114.4564  133.9293 H   0  0  0  0  0  0  0  0  0  0  0  0
  129.1858  113.4251  133.5618 H   0  0  0  0  0  0  0  0  0  0  0  0
  129.3484  115.2140  133.5618 H   0  0  0  0  0  0  0  0  0  0  0  0
  126.8566  112.9734  132.5686 H   0  0  0  0  0  0  0  0  0  0  0  0
  126.3934  113.7773  131.0305 H   0  0  0  0  0  0  0  0  0  0  0  0
  127.6518  112.4954  131.0305 H   0  0  0  0  0  0  0  0  0  0  0  0
  130.9186  114.3574  132.6904 H   0  0  0  0  0  0  0  0  0  0  0  0
  133.0037  113.9993  131.3780 H   0  0  0  0  0  0  0  0  0  0  0  0
  1  2  1  0
  2  3  2  0
  3  4  1  0
  4  5  1  0
  5  6  2  0
  5  7  2  0
  5  8  1  0
  8  9  1  0
  8 10  1  0
  4 11  2  0
 11 12  1  0
 12 13  2  0
 13 14  1  0
 14 15  1  0
 15 16  1  0
 16 17  1  0
 17 18  1  0
 18 19  1  0
 19 20  1  0
 20 21  1  0
 21 22  1  0
 21 23  1  0
 23 24  2  0
 23 25  2  0
 23 26  1  0
 26 27  2  0
 27 28  1  0
 28 29  2  0
 29 30  1  0
 30 31  1  0
 30 32  1  0
 30 33  1  0
 29 34  1  0
 34 35  2  0
 13  2  1  0
 35 26  1  0
  1 36  1  0
  1 37  1  0
  1 38  1  0
  3 39  1  0
  9 40  1  0
  9 41  1  0
  9 42  1  0
 10 43  1  0
 10 44  1  0
 10 45  1  0
 11 46  1  0
 12 47  1  0
 15 48  1  0
 15 49  1  0
 16 50  1  0
 16 51  1  0
 17 52  1  0
 17 53  1  0
 18 54  1  0
 18 55  1  0
 19 56  1  0
 19 57  1  0
 20 58  1  0
 20 59  1  0
 22 60  1  0
 22 61  1  0
 22 62  1  0
 27 63  1  0
 28 64  1  0
 31 65  1  0
 31 66  1  0
 31 67  1  0
 32 68  1  0
 32 69  1  0
 32 70  1  0
 33 71  1  0
 33 72  1  0
 33 73  1  0
 34 74  1  0
 35 75  1  0
M  END
$$$$

     RDKit          3D

 75 76  0  0  0  0  0  0  0  0999 V2000
  133.8160  119.0530  129.2390 C   0  0  0  0  0  0  0  0  0  0  0  0
  133.1500  117.7540  129.6020 C   0  0  0  0  0  0  0  0  0  0  0  0
  133.6890  116.5440  129.1400 C   0  0  0  0  0  0  0  0  0  0  0  0
  133.0720  115.3360  129.4760 C   0  0  0  0  0  0  0  0  0  0  0  0
  133.7430  113.7970  128.9000 S   0  0  0  0  0  6  0  0  0  0  0  0
  133.3430  112.7770  129.8460 O   0  0  0  0  0  0  0  0  0  0  0  0
  133.4550  113.6640  127.4870 O   0  0  0  0  0  0  0  0  0  0  0  0
  135.4330  114.0400  129.0550 N   0  0  0  0  0  0  0  0  0  0  0  0
  136.2590  112.8300  128.8440 C   0  0  0  0  0  0  0  0  0  0  0  0
  135.7980  114.7310  130.3140 C   0  0  0  0  0  0  0  0  0  0  0  0
  131.9150  115.3190  130.2560 C   0  0  0  0  0  0  0  0  0  0  0  0
  131.3750  116.5230  130.7170 C   0  0  0  0  0  0  0  0  0  0  0  0
  131.9850  117.7420  130.3950 C   0  0  0  0  0  0  0  0  0  0  0  0
  131.5370  118.9710  130.8020 O   0  0  0  0  0  0  0  0  0  0  0  0
  130.7100  119.0250  131.9630 C   0  0  0  0  0  0  0  0  0  0  0  0
  131.5890  119.3350  133.1740 C   0  0  0  0  0  0  0  0  0  0  0  0
  130.7830  119.9150  134.3400 C   0  0  0  0  0  0  0  0  0  0  0  0
  130.7360  118.9410  135.5200 C   0  0  0  0  0  0  0  0  0  0  0  0
  129.7550  119.4210  136.5940 C   0  0  0  0  0  0  0  0  0  0  0  0
  128.4850  118.5720  136.6620 C   0  0  0  0  0  0  0  0  0  0  0  0
  128.4280  117.8290  137.9440 N   0  0  0  0  0  0  0  0  0  0  0  0
  128.2090  118.6810  139.1230 C   0  0  0  0  0  0  0  0  0  0  0  0
  127.6820  116.3000  137.9420 S   0  0  0  0  0  6  0  0  0  0  0  0
  126.2920  116.4760  138.3070 O   0  0  0  0  0  0  0  0  0  0  0  0
  128.5330  115.3810  138.6690 O   0  0  0  0  0  0  0  0  0  0  0  0
  127.7220  115.8260  136.2260 C   0  0  0  0  0  0  0  0  0  0  0  0
  128.9200  115.4150  135.6430 C   0  0  0  0  0  0  0  0  0  0  0  0
  128.9400  115.0160  134.3010 C   0  0  0  0  0  0  0  0  0  0  0  0
  127.7690  115.0050  133.5230 C   0  0  0  0  0  0  0  0  0  0  0  0
  127.7590  114.5700  132.0460 C   0  0  0  0  0  0  0  0  0  0  0  0
  129.0500  113.7850  131.7260 C   0  0  0  0  0  0  0  0  0  0  0  0
  127.6850  115.8160  131.1390 C   0  0  0  0  0  0  0  0  0  0  0  0
  126.5690  113.6590  131.6710 C   0  0  0  0  0  0  0  0  0  0  0  0
  126.5680  115.3990  134.1500 C   0  0  0  0  0  0  0  0  0  0  0  0
  126.5390  115.7980  135.4900 C   0  0  0  0  0  0  0  0  0  0  0  0
  134.0925  119.5923  130.1570 H   0  0  0  0  0  0  0  0  0  0  0  0
  134.7205  118.8485  128.6473 H   0  0  0  0  0  0  0  0  0  0  0  0
  133.1220  119.6681  128.6473 H   0  0  0  0  0  0  0  0  0  0  0  0
  134.5944  116.5461  128.5153 H   0  0  0  0  0  0  0  0  0  0  0  0
  136.5470  112.4082  129.8182 H   0  0  0  0  0  0  0  0  0  0  0  0
  135.6802  112.0849  128.2785 H   0  0  0  0  0  0  0  0  0  0  0  0
  137.1637  113.0977  128.2785 H   0  0  0  0  0  0  0  0  0  0  0  0
  135.4768  114.1229  131.1725 H   0  0  0  0  0  0  0  0  0  0  0  0
  136.8883  114.8721  130.3521 H   0  0  0  0  0  0  0  0  0  0  0  0
  135.2999  115.7110  130.3521 H   0  0  0  0  0  0  0  0  0  0  0  0
  131.4307  114.3636  130.5066 H   0  0  0  0  0  0  0  0  0  0  0  0
  130.4659  116.5131  131.3362 H   0  0  0  0  0  0  0  0  0  0  0  0
  129.9534  119.8143  131.8426 H   0  0  0  0  0  0  0  0  0  0  0  0
  130.1998  118.0610  132.1060 H   0  0  0  0  0  0  0  0  0  0  0  0
  132.0746  118.4057  133.5065 H   0  0  0  0  0  0  0  0  0  0  0  0
  132.3313  120.0874  132.8690 H   0  0  0  0  0  0  0  0  0  0  0  0
  131.2524  120.8540  134.6685 H   0  0  0  0  0  0  0  0  0  0  0  0
  129.7538  120.0950  133.9961 H   0  0  0  0  0  0  0  0  0  0  0  0
  130.4162  117.9529  135.1575 H   0  0  0  0  0  0  0  0  0  0  0  0
  131.7402  118.8837  135.9653 H   0  0  0  0  0  0  0  0  0  0  0  0
  130.2574  119.3801  137.5717 H   0  0  0  0  0  0  0  0  0  0  0  0
  129.4534  120.4457  136.3313 H   0  0  0  0  0  0  0  0  0  0  0  0
  127.6057  119.2283  136.5840 H   0  0  0  0  0  0  0  0  0  0  0  0
  128.4931  117.8507  135.8316 H   0  0  0  0  0  0  0  0  0  0  0  0
  128.3613  118.0883  140.0371 H   0  0  0  0  0  0  0  0  0  0  0  0
  128.9208  119.5195  139.1068 H   0  0  0  0  0  0  0  0  0  0  0  0
  127.1811  119.0723  139.1068 H   0  0  0  0  0  0  0  0  0  0  0  0
  129.8467  115.4042  136.2356 H   0  0  0  0  0  0  0  0  0  0  0  0
  129.8918  114.7046  133.8459 H   0  0  0  0  0  0  0  0  0  0  0  0
  129.5401  113.4870  132.6646 H   0  0  0  0  0  0  0  0  0  0  0  0
  128.7981  112.8870  131.1427 H   0  0  0  0  0  0  0  0  0  0  0  0
  129.7313  114.4219  131.1427 H   0  0  0  0  0  0  0  0  0  0  0  0
  127.6313  116.7207  131.7625 H   0  0  0  0  0  0  0  0  0  0  0  0
  128.5820  115.8611  130.5040 H   0  0  0  0  0  0  0  0  0  0  0  0
  126.7889  115.7546  130.5040 H   0  0  0  0  0  0  0  0  0  0  0  0
  126.0867  113.2898  132.5881 H   0  0  0  0  0  0  0  0  0  0  0  0
  125.8405  114.2324  131.0790 H   0  0  0  0  0  0  0  0  0  0  0  0
  126.9325  112.8061  131.0790 H   0  0  0  0  0  0  0  0  0  0  0  0
  125.6326  115.3922  133.5712 H   0  0  0  0  0  0  0  0  0  0  0  0
  125.5879  116.0881  135.9604 H   0  0  0  0  0  0  0  0  0  0  0  0
  1  2  1  0
  2  3  2  0
  3  4  1  0
  4  5  1  0
  5  6  2  0
  5  7  2  0
  5  8  1  0
  8  9  1  0
  8 10  1  0
  4 11  2  0
 11 12  1  0
 12 13  2  0
 13 14  1  0
 14 15  1  0
 15 16  1  0
 16 17  1  0
 17 18  1  0
 18 19  1  0
 19 20  1  0
 20 21  1  0
 21 22  1  0
 21 23  1  0
 23 24  2  0
 23 25  2  0
 23 26  1  0
 26 27  2  0
 27 28  1  0
 28 29  2  0
 29 30  1  0
 30 31  1  0
 30 32  1  0
 30 33  1  0
 29 34  1  0
 34 35  2  0
 13  2  1  0
 35 26  1  0
  1 36  1  0
  1 37  1  0
  1 38  1  0
  3 39  1  0
  9 40  1  0
  9 41  1  0
  9 42  1  0
 10 43  1  0
 10 44  1  0
 10 45  1  0
 11 46  1  0
 12 47  1  0
 15 48  1  0
 15 49  1  0
 16 50  1  0
 16 51  1  0
 17 52  1  0
 17 53  1  0
 18 54  1  0
 18 55  1  0
 19 56  1  0
 19 57  1  0
 20 58  1  0
 20 59  1  0
 22 60  1  0
 22 61  1  0
 22 62  1  0
 27 63  1  0
 28 64  1  0
 31 65  1  0
 31 66  1  0
 31 67  1  0
 32 68  1  0
 32 69  1  0
 32 70  1  0
 33 71  1  0
 33 72  1  0
 33 73  1  0
 34 74  1  0
 35 75  1  0
M  END
$$$$

     RDKit          3D

 75 76  0  0  0  0  0  0  0  0999 V2000
  130.2260  117.6790  132.5670 C   0  0  0  0  0  0  0  0  0  0  0  0
  131.2900  118.1240  131.6020 C   0  0  0  0  0  0  0  0  0  0  0  0
  131.9650  117.1710  130.8240 C   0  0  0  0  0  0  0  0  0  0  0  0
  132.9550  117.5810  129.9280 C   0  0  0  0  0  0  0  0  0  0  0  0
  133.8160  116.3880  128.9360 S   0  0  0  0  0  6  0  0  0  0  0  0
  133.1190  116.3000  127.6710 O   0  0  0  0  0  0  0  0  0  0  0  0
  135.2350  116.6740  128.9920 O   0  0  0  0  0  0  0  0  0  0  0  0
  133.5570  114.9260  129.7950 N   0  0  0  0  0  0  0  0  0  0  0  0
  134.6860  113.9700  129.7520 C   0  0  0  0  0  0  0  0  0  0  0  0
  132.2790  114.2700  129.4340 C   0  0  0  0  0  0  0  0  0  0  0  0
  133.2910  118.9300  129.8050 C   0  0  0  0  0  0  0  0  0  0  0  0
  132.6210  119.8820  130.5790 C   0  0  0  0  0  0  0  0  0  0  0  0
  131.6220  119.4880  131.4780 C   0  0  0  0  0  0  0  0  0  0  0  0
  130.9070  120.3430  132.2740 O   0  0  0  0  0  0  0  0  0  0  0  0
  131.6240  121.1020  133.2460 C   0  0  0  0  0  0  0  0  0  0  0  0
  130.7130  121.3390  134.4500 C   0  0  0  0  0  0  0  0  0  0  0  0
  129.2350  121.1390  134.1050 C   0  0  0  0  0  0  0  0  0  0  0  0
  128.4260  120.7350  135.3400 C   0  0  0  0  0  0  0  0  0  0  0  0
  128.8420  119.3500  135.8450 C   0  0  0  0  0  0  0  0  0  0  0  0
  127.9840  118.8590  137.0110 C   0  0  0  0  0  0  0  0  0  0  0  0
  128.6200  117.6930  137.6670 N   0  0  0  0  0  0  0  0  0  0  0  0
  129.4410  118.0350  138.8390 C   0  0  0  0  0  0  0  0  0  0  0  0
  127.7340  116.2410  137.7390 S   0  0  0  0  0  6  0  0  0  0  0  0
  126.3570  116.5690  138.0490 O   0  0  0  0  0  0  0  0  0  0  0  0
  128.4760  115.2980  138.5490 O   0  0  0  0  0  0  0  0  0  0  0  0
  127.7720  115.6540  136.0580 C   0  0  0  0  0  0  0  0  0  0  0  0
  126.6330  115.7480  135.2600 C   0  0  0  0  0  0  0  0  0  0  0  0
  126.6760  115.3120  133.9310 C   0  0  0  0  0  0  0  0  0  0  0  0
  127.8560  114.7910  133.3700 C   0  0  0  0  0  0  0  0  0  0  0  0
  127.9360  114.3050  131.9110 C   0  0  0  0  0  0  0  0  0  0  0  0
  127.4830  115.4360  130.9610 C   0  0  0  0  0  0  0  0  0  0  0  0
  127.0150  113.0830  131.7200 C   0  0  0  0  0  0  0  0  0  0  0  0
  129.3550  113.8830  131.4700 C   0  0  0  0  0  0  0  0  0  0  0  0
  128.9990  114.7370  134.1950 C   0  0  0  0  0  0  0  0  0  0  0  0
  128.9650  115.1720  135.5230 C   0  0  0  0  0  0  0  0  0  0  0  0
  130.5805  117.8273  133.5977 H   0  0  0  0  0  0  0  0  0  0  0  0
  129.3130  118.2707  132.4046 H   0  0  0  0  0  0  0  0  0  0  0  0
  130.0061  116.6135  132.4046 H   0  0  0  0  0  0  0  0  0  0  0  0
  131.7152  116.1040  130.9195 H   0  0  0  0  0  0  0  0  0  0  0  0
  134.9887  113.7137  130.7780 H   0  0  0  0  0  0  0  0  0  0  0  0
  134.3738  113.0575  129.2230 H   0  0  0  0  0  0  0  0  0  0  0  0
  135.5346  114.4283  129.2230 H   0  0  0  0  0  0  0  0  0  0  0  0
  131.7378  113.9922  130.3505 H   0  0  0  0  0  0  0  0  0  0  0  0
  131.6649  114.9643  128.8417 H   0  0  0  0  0  0  0  0  0  0  0  0
  132.4852  113.3663  128.8417 H   0  0  0  0  0  0  0  0  0  0  0  0
  134.0784  119.2423  129.1032 H   0  0  0  0  0  0  0  0  0  0  0  0
  132.8799  120.9466  130.4814 H   0  0  0  0  0  0  0  0  0  0  0  0
  132.5194  120.5469  133.5626 H   0  0  0  0  0  0  0  0  0  0  0  0
  131.9351  122.0652  132.8153 H   0  0  0  0  0  0  0  0  0  0  0  0
  130.9892  120.6336  135.2475 H   0  0  0  0  0  0  0  0  0  0  0  0
  130.8460  122.3817  134.7741 H   0  0  0  0  0  0  0  0  0  0  0  0
  128.8302  122.0796  133.7033 H   0  0  0  0  0  0  0  0  0  0  0  0
  129.1580  120.3331  133.3603 H   0  0  0  0  0  0  0  0  0  0  0  0
  128.5953  121.4736  136.1374 H   0  0  0  0  0  0  0  0  0  0  0  0
  127.3618  120.7002  135.0636 H   0  0  0  0  0  0  0  0  0  0  0  0
  128.7514  118.6325  135.0162 H   0  0  0  0  0  0  0  0  0  0  0  0
  129.8776  119.4284  136.2076 H   0  0  0  0  0  0  0  0  0  0  0  0
  127.8716  119.6707  137.7449 H   0  0  0  0  0  0  0  0  0  0  0  0
  126.9987  118.5574  136.6259 H   0  0  0  0  0  0  0  0  0  0  0  0
  128.8830  117.8026  139.7580 H   0  0  0  0  0  0  0  0  0  0  0  0
  130.3723  117.4500  138.8176 H   0  0  0  0  0  0  0  0  0  0  0  0
  129.6815  119.1082  138.8176 H   0  0  0  0  0  0  0  0  0  0  0  0
  125.7026  116.1639  135.6739 H   0  0  0  0  0  0  0  0  0  0  0  0
  125.7687  115.3780  133.3125 H   0  0  0  0  0  0  0  0  0  0  0  0
  127.1384  116.2964  131.5534 H   0  0  0  0  0  0  0  0  0  0  0  0
  128.3278  115.7424  130.3266 H   0  0  0  0  0  0  0  0  0  0  0  0
  126.6603  115.0745  130.3266 H   0  0  0  0  0  0  0  0  0  0  0  0
  126.7187  112.6899  132.7037 H   0  0  0  0  0  0  0  0  0  0  0  0
  126.1174  113.3843  131.1600 H   0  0  0  0  0  0  0  0  0  0  0  0
  127.5519  112.3032  131.1600 H   0  0  0  0  0  0  0  0  0  0  0  0
  129.9756  113.6984  132.3593 H   0  0  0  0  0  0  0  0  0  0  0  0
  129.2939  112.9641  130.8684 H   0  0  0  0  0  0  0  0  0  0  0  0
  129.8059  114.6859  130.8684 H   0  0  0  0  0  0  0  0  0  0  0  0
  129.9399  114.3430  133.7833 H   0  0  0  0  0  0  0  0  0  0  0  0
  129.8738  115.1341  136.1415 H   0  0  0  0  0  0  0  0  0  0  0  0
  1  2  1  0
  2  3  2  0
  3  4  1  0
  4  5  1  0
  5  6  2  0
  5  7  2  0
  5  8  1  0
  8  9  1  0
  8 10  1  0
  4 11  2  0
 11 12  1  0
 12 13  2  0
 13 14  1  0
 14 15  1  0
 15 16  1  0
 16 17  1  0
 17 18  1  0
 18 19  1  0
 19 20  1  0
 20 21  1  0
 21 22  1  0
 21 23  1  0
 23 24  2  0
 23 25  2  0
 23 26  1  0
 26 27  2  0
 27 28  1  0
 28 29  2  0
 29 30  1  0
 30 31  1  0
 30 32  1  0
 30 33  1  0
 29 34  1  0
 34 35  2  0
 13  2  1  0
 35 26  1  0
  1 36  1  0
  1 37  1  0
  1 38  1  0
  3 39  1  0
  9 40  1  0
  9 41  1  0
  9 42  1  0
 10 43  1  0
 10 44  1  0
 10 45  1  0
 11 46  1  0
 12 47  1  0
 15 48  1  0
 15 49  1  0
 16 50  1  0
 16 51  1  0
 17 52  1  0
 17 53  1  0
 18 54  1  0
 18 55  1  0
 19 56  1  0
 19 57  1  0
 20 58  1  0
 20 59  1  0
 22 60  1  0
 22 61  1  0
 22 62  1  0
 27 63  1  0
 28 64  1  0
 31 65  1  0
 31 66  1  0
 31 67  1  0
 32 68  1  0
 32 69  1  0
 32 70  1  0
 33 71  1  0
 33 72  1  0
 33 73  1  0
 34 74  1  0
 35 75  1  0
M  END
$$$$

