
     RDKit          3D

 36 40  0  0  0  0  0  0  0  0999 V2000
  136.4030  112.8180  131.1390 O   0  0  0  0  0  1  0  0  0  0  0  0
  136.2030  112.7250  129.8880 C   0  0  0  0  0  0  0  0  0  0  0  0
  137.0060  112.2190  129.0440 O   0  0  0  0  0  0  0  0  0  0  0  0
  134.9410  113.3240  129.3560 C   0  0  0  0  0  0  0  0  0  0  0  0
  134.2430  112.7200  128.3080 C   0  0  0  0  0  3  0  0  0  0  0  0
  133.1260  113.3360  127.7520 C   0  0  0  0  0  3  0  0  0  0  0  0
  132.7180  114.5870  128.2140 C   0  0  0  0  0  3  0  0  0  0  0  0
  133.4030  115.2210  129.2540 C   0  0  0  0  0  0  0  0  0  0  0  0
  133.0450  116.5680  129.7010 C   0  0  0  0  0  0  0  0  0  0  0  0
  133.8670  117.6310  129.2930 C   0  0  0  0  0  3  0  0  0  0  0  0
  133.6050  118.9470  129.6630 C   0  0  0  0  0  3  0  0  0  0  0  0
  132.5040  119.2290  130.4590 C   0  0  0  0  0  3  0  0  0  0  0  0
  131.6680  118.1950  130.8670 C   0  0  0  0  0  3  0  0  0  0  0  0
  131.9120  116.8680  130.4900 C   0  0  0  0  0  0  0  0  0  0  0  0
  130.7040  115.6870  131.0930 S   0  0  0  0  0  0  0  0  0  0  0  0
  130.0500  116.6360  132.3360 C   0  0  0  0  0  2  0  0  0  0  0  0
  129.4260  117.3260  133.4100 C   0  0  0  0  0  3  0  0  0  0  0  0
  129.5560  118.7650  133.5620 C   0  0  0  0  0  2  0  0  0  0  0  0
  129.4510  119.7700  134.4960 N   0  0  0  0  0  0  0  0  0  0  0  0
  129.9130  121.0750  134.3780 C   0  0  0  0  0  0  0  0  0  0  0  0
  129.1890  122.0710  134.4010 O   0  0  0  0  0  0  0  0  0  0  0  0
  131.3920  121.1730  134.2790 C   0  0  0  0  0  3  0  0  0  0  0  0
  132.0600  122.4360  134.3730 C   0  0  0  0  0  2  0  0  0  0  0  0
  132.0510  121.6490  133.1010 C   0  0  0  0  0  2  0  0  0  0  0  0
  128.9430  119.1080  135.5770 C   0  0  0  0  0  2  0  0  0  0  0  0
  128.7020  117.5850  135.5760 C   0  0  0  0  0  2  0  0  0  0  0  0
  128.9390  116.6610  134.5870 N   0  0  0  0  0  0  0  0  0  0  0  0
  128.7910  115.2690  134.6430 C   0  0  0  0  0  0  0  0  0  0  0  0
  129.3020  114.5300  135.4840 O   0  0  0  0  0  0  0  0  0  0  0  0
  127.9910  114.6140  133.5820 C   0  0  0  0  0  0  0  0  0  0  0  0
  126.7540  115.1680  133.2480 C   0  0  0  0  0  3  0  0  0  0  0  0
  126.0040  114.6250  132.2090 C   0  0  0  0  0  3  0  0  0  0  0  0
  126.4980  113.5400  131.4880 C   0  0  0  0  0  3  0  0  0  0  0  0
  127.7430  113.0010  131.8030 C   0  0  0  0  0  3  0  0  0  0  0  0
  128.4940  113.5460  132.8430 C   0  0  0  0  0  3  0  0  0  0  0  0
  134.4920  114.5580  129.8340 C   0  0  0  0  0  3  0  0  0  0  0  0
  1  2  1  0
  2  3  2  0
  2  4  1  0
  4  5  2  0
  5  6  1  0
  6  7  2  0
  7  8  1  0
  8  9  1  0
  9 10  2  0
 10 11  1  0
 11 12  2  0
 12 13  1  0
 13 14  2  0
 14 15  1  0
 15 16  1  0
 16 17  1  0
 17 18  1  0
 18 19  1  0
 19 20  1  0
 20 21  2  0
 20 22  1  0
 22 23  1  0
 23 24  1  0
 19 25  1  0
 25 26  1  0
 26 27  1  0
 27 28  1  0
 28 29  2  0
 28 30  1  0
 30 31  2  0
 31 32  1  0
 32 33  2  0
 33 34  1  0
 34 35  2  0
  8 36  2  0
 36  4  1  0
 14  9  1  0
 27 17  1  0
 35 30  1  0
 24 22  1  0
M  RAD  8   1   2   5   2   6   2   7   2  10   2  11   2  12   2  13   2
M  RAD  8  16   3  17   2  18   3  22   2  23   3  24   3  25   3  26   3
M  RAD  6  31   2  32   2  33   2  34   2  35   2  36   2
M  END
$$$$

     RDKit          3D

 36 40  0  0  0  0  0  0  0  0999 V2000
  126.0200  115.3700  138.4140 O   0  0  0  0  0  1  0  0  0  0  0  0
  127.0330  116.1370  138.4300 C   0  0  0  0  0  0  0  0  0  0  0  0
  127.4050  116.8530  139.4120 O   0  0  0  0  0  0  0  0  0  0  0  0
  127.8150  116.2570  137.1620 C   0  0  0  0  0  0  0  0  0  0  0  0
  128.8630  117.1720  137.0470 C   0  0  0  0  0  3  0  0  0  0  0  0
  129.5190  117.3490  135.8310 C   0  0  0  0  0  3  0  0  0  0  0  0
  129.1040  116.6380  134.7060 C   0  0  0  0  0  3  0  0  0  0  0  0
  128.0500  115.7230  134.7880 C   0  0  0  0  0  0  0  0  0  0  0  0
  127.5440  115.0270  133.6050 C   0  0  0  0  0  0  0  0  0  0  0  0
  126.2340  115.3170  133.1890 C   0  0  0  0  0  3  0  0  0  0  0  0
  125.6670  114.7090  132.0720 C   0  0  0  0  0  3  0  0  0  0  0  0
  126.4050  113.7870  131.3440 C   0  0  0  0  0  3  0  0  0  0  0  0
  127.7080  113.4900  131.7300 C   0  0  0  0  0  3  0  0  0  0  0  0
  128.2960  114.1060  132.8420 C   0  0  0  0  0  0  0  0  0  0  0  0
  129.9920  113.6110  133.1580 S   0  0  0  0  0  0  0  0  0  0  0  0
  130.7110  114.3770  131.8290 C   0  0  0  0  0  2  0  0  0  0  0  0
  131.4170  114.9390  130.7310 C   0  0  0  0  0  3  0  0  0  0  0  0
  132.3390  114.1450  129.9380 C   0  0  0  0  0  2  0  0  0  0  0  0
  133.4090  114.2630  129.0800 N   0  0  0  0  0  0  0  0  0  0  0  0
  134.2730  113.2510  128.6760 C   0  0  0  0  0  0  0  0  0  0  0  0
  134.4220  112.8940  127.5060 O   0  0  0  0  0  0  0  0  0  0  0  0
  135.0630  112.6660  129.7890 C   0  0  0  0  0  3  0  0  0  0  0  0
  136.0600  113.4320  130.4730 C   0  0  0  0  0  2  0  0  0  0  0  0
  136.4230  112.2510  129.6280 C   0  0  0  0  0  2  0  0  0  0  0  0
  133.4770  115.6130  128.8850 C   0  0  0  0  0  2  0  0  0  0  0  0
  132.5460  116.6010  129.6140 C   0  0  0  0  0  2  0  0  0  0  0  0
  131.5580  116.3560  130.5370 N   0  0  0  0  0  0  0  0  0  0  0  0
  130.7830  117.2810  131.2490 C   0  0  0  0  0  0  0  0  0  0  0  0
  129.6900  117.0510  131.7660 O   0  0  0  0  0  0  0  0  0  0  0  0
  131.2910  118.6690  131.3620 C   0  0  0  0  0  0  0  0  0  0  0  0
  131.2150  119.3040  132.6020 C   0  0  0  0  0  3  0  0  0  0  0  0
  131.7450  120.5800  132.7660 C   0  0  0  0  0  3  0  0  0  0  0  0
  132.3710  121.2160  131.6960 C   0  0  0  0  0  3  0  0  0  0  0  0
  132.4700  120.5750  130.4630 C   0  0  0  0  0  3  0  0  0  0  0  0
  131.9400  119.2970  130.3000 C   0  0  0  0  0  3  0  0  0  0  0  0
  127.4410  115.5230  136.0330 C   0  0  0  0  0  3  0  0  0  0  0  0
  1  2  1  0
  2  3  2  0
  2  4  1  0
  4  5  2  0
  5  6  1  0
  6  7  2  0
  7  8  1  0
  8  9  1  0
  9 10  2  0
 10 11  1  0
 11 12  2  0
 12 13  1  0
 13 14  2  0
 14 15  1  0
 15 16  1  0
 16 17  1  0
 17 18  1  0
 18 19  1  0
 19 20  1  0
 20 21  2  0
 20 22  1  0
 22 23  1  0
 23 24  1  0
 19 25  1  0
 25 26  1  0
 26 27  1  0
 27 28  1  0
 28 29  2  0
 28 30  1  0
 30 31  2  0
 31 32  1  0
 32 33  2  0
 33 34  1  0
 34 35  2  0
  8 36  2  0
 36  4  1  0
 14  9  1  0
 27 17  1  0
 35 30  1  0
 24 22  1  0
M  RAD  8   1   2   5   2   6   2   7   2  10   2  11   2  12   2  13   2
M  RAD  8  16   3  17   2  18   3  22   2  23   3  24   3  25   3  26   3
M  RAD  6  31   2  32   2  33   2  34   2  35   2  36   2
M  END
$$$$

     RDKit          3D

 36 40  0  0  0  0  0  0  0  0999 V2000
  133.4050  111.8430  130.1780 O   0  0  0  0  0  1  0  0  0  0  0  0
  133.3510  112.6070  129.1650 C   0  0  0  0  0  0  0  0  0  0  0  0
  132.7960  112.3320  128.0560 O   0  0  0  0  0  0  0  0  0  0  0  0
  134.0620  113.9180  129.2650 C   0  0  0  0  0  0  0  0  0  0  0  0
  135.4540  113.9770  129.3540 C   0  0  0  0  0  3  0  0  0  0  0  0
  136.1010  115.1950  129.5490 C   0  0  0  0  0  3  0  0  0  0  0  0
  135.3560  116.3640  129.6970 C   0  0  0  0  0  3  0  0  0  0  0  0
  133.9610  116.3340  129.6240 C   0  0  0  0  0  0  0  0  0  0  0  0
  133.1540  117.5330  129.8570 C   0  0  0  0  0  0  0  0  0  0  0  0
  133.6480  118.7560  129.3760 C   0  0  0  0  0  3  0  0  0  0  0  0
  132.9500  119.9490  129.5450 C   0  0  0  0  0  3  0  0  0  0  0  0
  131.7310  119.9420  130.2080 C   0  0  0  0  0  3  0  0  0  0  0  0
  131.2150  118.7410  130.6850 C   0  0  0  0  0  3  0  0  0  0  0  0
  131.9000  117.5320  130.5080 C   0  0  0  0  0  0  0  0  0  0  0  0
  131.0550  116.0930  131.1680 S   0  0  0  0  0  0  0  0  0  0  0  0
  130.3060  116.8470  132.4880 C   0  0  0  0  0  2  0  0  0  0  0  0
  129.5680  117.4850  133.5210 C   0  0  0  0  0  3  0  0  0  0  0  0
  129.6560  118.9180  133.7400 C   0  0  0  0  0  2  0  0  0  0  0  0
  129.4420  119.8830  134.6980 N   0  0  0  0  0  0  0  0  0  0  0  0
  129.8910  121.1990  134.6760 C   0  0  0  0  0  0  0  0  0  0  0  0
  129.1640  122.1810  134.8300 O   0  0  0  0  0  0  0  0  0  0  0  0
  131.3610  121.3210  134.5090 C   0  0  0  0  0  3  0  0  0  0  0  0
  132.0310  122.5680  134.7210 C   0  0  0  0  0  2  0  0  0  0  0  0
  131.9530  121.9430  133.3640 C   0  0  0  0  0  2  0  0  0  0  0  0
  128.8430  119.1710  135.6980 C   0  0  0  0  0  2  0  0  0  0  0  0
  128.6310  117.6470  135.6140 C   0  0  0  0  0  2  0  0  0  0  0  0
  128.9800  116.7670  134.6180 N   0  0  0  0  0  0  0  0  0  0  0  0
  128.8520  115.3710  134.6060 C   0  0  0  0  0  0  0  0  0  0  0  0
  129.3230  114.6030  135.4440 O   0  0  0  0  0  0  0  0  0  0  0  0
  128.1290  114.7520  133.4710 C   0  0  0  0  0  0  0  0  0  0  0  0
  128.7350  113.6880  132.8000 C   0  0  0  0  0  3  0  0  0  0  0  0
  128.0570  113.0340  131.7750 C   0  0  0  0  0  3  0  0  0  0  0  0
  126.7660  113.4280  131.4320 C   0  0  0  0  0  3  0  0  0  0  0  0
  126.1500  114.4730  132.1160 C   0  0  0  0  0  3  0  0  0  0  0  0
  126.8270  115.1270  133.1430 C   0  0  0  0  0  3  0  0  0  0  0  0
  133.3340  115.1070  129.3730 C   0  0  0  0  0  3  0  0  0  0  0  0
  1  2  1  0
  2  3  2  0
  2  4  1  0
  4  5  2  0
  5  6  1  0
  6  7  2  0
  7  8  1  0
  8  9  1  0
  9 10  2  0
 10 11  1  0
 11 12  2  0
 12 13  1  0
 13 14  2  0
 14 15  1  0
 15 16  1  0
 16 17  1  0
 17 18  1  0
 18 19  1  0
 19 20  1  0
 20 21  2  0
 20 22  1  0
 22 23  1  0
 23 24  1  0
 19 25  1  0
 25 26  1  0
 26 27  1  0
 27 28  1  0
 28 29  2  0
 28 30  1  0
 30 31  2  0
 31 32  1  0
 32 33  2  0
 33 34  1  0
 34 35  2  0
  8 36  2  0
 36  4  1  0
 14  9  1  0
 27 17  1  0
 35 30  1  0
 24 22  1  0
M  RAD  8   1   2   5   2   6   2   7   2  10   2  11   2  12   2  13   2
M  RAD  8  16   3  17   2  18   3  22   2  23   3  24   3  25   3  26   3
M  RAD  6  31   2  32   2  33   2  34   2  35   2  36   2
M  END
$$$$

     RDKit          3D

 36 40  0  0  0  0  0  0  0  0999 V2000
  127.4830  116.9740  139.5670 O   0  0  0  0  0  1  0  0  0  0  0  0
  127.0280  116.3340  138.5680 C   0  0  0  0  0  0  0  0  0  0  0  0
  126.0090  115.5750  138.5750 O   0  0  0  0  0  0  0  0  0  0  0  0
  127.8000  116.4290  137.2920 C   0  0  0  0  0  0  0  0  0  0  0  0
  128.8590  117.3290  137.1570 C   0  0  0  0  0  3  0  0  0  0  0  0
  129.5060  117.4830  135.9340 C   0  0  0  0  0  3  0  0  0  0  0  0
  129.0730  116.7640  134.8210 C   0  0  0  0  0  3  0  0  0  0  0  0
  128.0080  115.8650  134.9230 C   0  0  0  0  0  0  0  0  0  0  0  0
  127.4820  115.1620  133.7520 C   0  0  0  0  0  0  0  0  0  0  0  0
  126.1850  115.4880  133.3230 C   0  0  0  0  0  3  0  0  0  0  0  0
  125.6010  114.8770  132.2170 C   0  0  0  0  0  3  0  0  0  0  0  0
  126.3090  113.9140  131.5120 C   0  0  0  0  0  3  0  0  0  0  0  0
  127.5990  113.5810  131.9100 C   0  0  0  0  0  3  0  0  0  0  0  0
  128.2050  114.1990  133.0120 C   0  0  0  0  0  0  0  0  0  0  0  0
  129.8810  113.6530  133.3460 S   0  0  0  0  0  0  0  0  0  0  0  0
  130.6470  114.4490  132.0610 C   0  0  0  0  0  2  0  0  0  0  0  0
  131.3300  114.9970  130.9430 C   0  0  0  0  0  3  0  0  0  0  0  0
  132.2690  114.2070  130.1660 C   0  0  0  0  0  2  0  0  0  0  0  0
  133.3290  114.3290  129.2980 N   0  0  0  0  0  0  0  0  0  0  0  0
  134.2190  113.3310  128.9170 C   0  0  0  0  0  0  0  0  0  0  0  0
  133.9150  112.3610  128.2200 O   0  0  0  0  0  0  0  0  0  0  0  0
  135.6100  113.5680  129.3800 C   0  0  0  0  0  3  0  0  0  0  0  0
  136.7070  112.8210  128.8450 C   0  0  0  0  0  2  0  0  0  0  0  0
  136.2830  112.6750  130.2730 C   0  0  0  0  0  2  0  0  0  0  0  0
  133.3580  115.6740  129.0630 C   0  0  0  0  0  2  0  0  0  0  0  0
  132.4050  116.6570  129.7700 C   0  0  0  0  0  2  0  0  0  0  0  0
  131.4290  116.4120  130.7060 N   0  0  0  0  0  0  0  0  0  0  0  0
  130.6340  117.3350  131.3970 C   0  0  0  0  0  0  0  0  0  0  0  0
  129.4830  117.1380  131.7850 O   0  0  0  0  0  0  0  0  0  0  0  0
  131.1980  118.6820  131.6500 C   0  0  0  0  0  0  0  0  0  0  0  0
  131.6460  119.4290  130.5600 C   0  0  0  0  0  3  0  0  0  0  0  0
  132.1160  120.7250  130.7490 C   0  0  0  0  0  3  0  0  0  0  0  0
  132.1200  121.2850  132.0240 C   0  0  0  0  0  3  0  0  0  0  0  0
  131.6500  120.5510  133.1100 C   0  0  0  0  0  3  0  0  0  0  0  0
  131.1790  119.2540  132.9210 C   0  0  0  0  0  3  0  0  0  0  0  0
  127.4070  115.6870  136.1750 C   0  0  0  0  0  3  0  0  0  0  0  0
  1  2  1  0
  2  3  2  0
  2  4  1  0
  4  5  2  0
  5  6  1  0
  6  7  2  0
  7  8  1  0
  8  9  1  0
  9 10  2  0
 10 11  1  0
 11 12  2  0
 12 13  1  0
 13 14  2  0
 14 15  1  0
 15 16  1  0
 16 17  1  0
 17 18  1  0
 18 19  1  0
 19 20  1  0
 20 21  2  0
 20 22  1  0
 22 23  1  0
 23 24  1  0
 19 25  1  0
 25 26  1  0
 26 27  1  0
 27 28  1  0
 28 29  2  0
 28 30  1  0
 30 31  2  0
 31 32  1  0
 32 33  2  0
 33 34  1  0
 34 35  2  0
  8 36  2  0
 36  4  1  0
 14  9  1  0
 27 17  1  0
 35 30  1  0
 24 22  1  0
M  RAD  8   1   2   5   2   6   2   7   2  10   2  11   2  12   2  13   2
M  RAD  8  16   3  17   2  18   3  22   2  23   3  24   3  25   3  26   3
M  RAD  6  31   2  32   2  33   2  34   2  35   2  36   2
M  END
$$$$

     RDKit          3D

 36 40  0  0  0  0  0  0  0  0999 V2000
  131.0380  119.1730  136.6200 O   0  0  0  0  0  1  0  0  0  0  0  0
  129.9140  119.0150  136.0520 C   0  0  0  0  0  0  0  0  0  0  0  0
  129.2630  119.9120  135.4320 O   0  0  0  0  0  0  0  0  0  0  0  0
  129.2700  117.6720  136.1820 C   0  0  0  0  0  0  0  0  0  0  0  0
  129.4020  116.9210  137.3520 C   0  0  0  0  0  3  0  0  0  0  0  0
  128.8860  115.6300  137.4270 C   0  0  0  0  0  3  0  0  0  0  0  0
  128.2650  115.0620  136.3150 C   0  0  0  0  0  3  0  0  0  0  0  0
  128.1280  115.7850  135.1280 C   0  0  0  0  0  0  0  0  0  0  0  0
  127.5540  115.1830  133.9230 C   0  0  0  0  0  0  0  0  0  0  0  0
  126.2550  115.5700  133.5560 C   0  0  0  0  0  3  0  0  0  0  0  0
  125.6270  115.0550  132.4250 C   0  0  0  0  0  3  0  0  0  0  0  0
  126.2930  114.1330  131.6310 C   0  0  0  0  0  3  0  0  0  0  0  0
  127.5850  113.7420  131.9670 C   0  0  0  0  0  3  0  0  0  0  0  0
  128.2340  114.2630  133.0940 C   0  0  0  0  0  0  0  0  0  0  0  0
  129.9040  113.6560  133.3400 S   0  0  0  0  0  0  0  0  0  0  0  0
  130.6310  114.4260  132.0170 C   0  0  0  0  0  2  0  0  0  0  0  0
  131.3210  114.9680  130.9000 C   0  0  0  0  0  3  0  0  0  0  0  0
  132.1500  114.1360  130.0450 C   0  0  0  0  0  2  0  0  0  0  0  0
  133.1840  114.2050  129.1400 N   0  0  0  0  0  0  0  0  0  0  0  0
  133.9580  113.1490  128.6710 C   0  0  0  0  0  0  0  0  0  0  0  0
  133.8690  112.6750  127.5380 O   0  0  0  0  0  0  0  0  0  0  0  0
  134.9650  112.6710  129.6520 C   0  0  0  0  0  3  0  0  0  0  0  0
  135.9360  113.5620  130.2130 C   0  0  0  0  0  2  0  0  0  0  0  0
  136.3340  112.4470  129.2980 C   0  0  0  0  0  2  0  0  0  0  0  0
  133.3350  115.5520  128.9740 C   0  0  0  0  0  2  0  0  0  0  0  0
  132.5080  116.5810  129.7690 C   0  0  0  0  0  2  0  0  0  0  0  0
  131.5480  116.3770  130.7320 N   0  0  0  0  0  0  0  0  0  0  0  0
  130.8720  117.3330  131.5020 C   0  0  0  0  0  0  0  0  0  0  0  0
  129.8890  117.1150  132.2100 O   0  0  0  0  0  0  0  0  0  0  0  0
  131.3440  118.7360  131.4360 C   0  0  0  0  0  0  0  0  0  0  0  0
  131.3860  119.4770  132.6180 C   0  0  0  0  0  3  0  0  0  0  0  0
  131.8890  120.7750  132.6100 C   0  0  0  0  0  3  0  0  0  0  0  0
  132.3710  121.3270  131.4250 C   0  0  0  0  0  3  0  0  0  0  0  0
  132.3530  120.5800  130.2490 C   0  0  0  0  0  3  0  0  0  0  0  0
  131.8500  119.2810  130.2580 C   0  0  0  0  0  3  0  0  0  0  0  0
  128.6070  117.1010  135.0920 C   0  0  0  0  0  3  0  0  0  0  0  0
  1  2  1  0
  2  3  2  0
  2  4  1  0
  4  5  2  0
  5  6  1  0
  6  7  2  0
  7  8  1  0
  8  9  1  0
  9 10  2  0
 10 11  1  0
 11 12  2  0
 12 13  1  0
 13 14  2  0
 14 15  1  0
 15 16  1  0
 16 17  1  0
 17 18  1  0
 18 19  1  0
 19 20  1  0
 20 21  2  0
 20 22  1  0
 22 23  1  0
 23 24  1  0
 19 25  1  0
 25 26  1  0
 26 27  1  0
 27 28  1  0
 28 29  2  0
 28 30  1  0
 30 31  2  0
 31 32  1  0
 32 33  2  0
 33 34  1  0
 34 35  2  0
  8 36  2  0
 36  4  1  0
 14  9  1  0
 27 17  1  0
 35 30  1  0
 24 22  1  0
M  RAD  8   1   2   5   2   6   2   7   2  10   2  11   2  12   2  13   2
M  RAD  8  16   3  17   2  18   3  22   2  23   3  24   3  25   3  26   3
M  RAD  6  31   2  32   2  33   2  34   2  35   2  36   2
M  END
$$$$

     RDKit          3D

 36 40  0  0  0  0  0  0  0  0999 V2000
  133.0540  112.4050  128.4810 O   0  0  0  0  0  1  0  0  0  0  0  0
  133.1020  112.8480  129.6710 C   0  0  0  0  0  0  0  0  0  0  0  0
  133.8000  112.3630  130.6150 O   0  0  0  0  0  0  0  0  0  0  0  0
  132.2060  113.9970  130.0040 C   0  0  0  0  0  0  0  0  0  0  0  0
  132.6950  115.3040  130.0390 C   0  0  0  0  0  3  0  0  0  0  0  0
  131.8790  116.3550  130.4480 C   0  0  0  0  0  3  0  0  0  0  0  0
  130.5730  116.1020  130.8660 C   0  0  0  0  0  3  0  0  0  0  0  0
  130.0600  114.8020  130.8530 C   0  0  0  0  0  0  0  0  0  0  0  0
  128.7220  114.5000  131.3640 C   0  0  0  0  0  0  0  0  0  0  0  0
  127.6770  114.3950  130.4310 C   0  0  0  0  0  3  0  0  0  0  0  0
  126.3710  114.1050  130.8210 C   0  0  0  0  0  3  0  0  0  0  0  0
  126.0820  113.9150  132.1640 C   0  0  0  0  0  3  0  0  0  0  0  0
  127.1020  114.0030  133.1060 C   0  0  0  0  0  3  0  0  0  0  0  0
  128.4230  114.2790  132.7270 C   0  0  0  0  0  0  0  0  0  0  0  0
  129.5950  114.3220  134.0840 S   0  0  0  0  0  0  0  0  0  0  0  0
  129.7230  116.0050  134.2300 C   0  0  0  0  0  2  0  0  0  0  0  0
  129.8970  117.3960  134.4640 C   0  0  0  0  0  3  0  0  0  0  0  0
  130.2180  118.3120  133.3830 C   0  0  0  0  0  2  0  0  0  0  0  0
  130.7610  119.5520  133.1400 N   0  0  0  0  0  0  0  0  0  0  0  0
  131.1840  120.0550  131.9140 C   0  0  0  0  0  0  0  0  0  0  0  0
  130.7430  119.6870  130.8250 O   0  0  0  0  0  0  0  0  0  0  0  0
  132.1910  121.1400  132.0350 C   0  0  0  0  0  3  0  0  0  0  0  0
  132.4150  122.0660  130.9670 C   0  0  0  0  0  2  0  0  0  0  0  0
  133.4620  121.0820  131.3810 C   0  0  0  0  0  2  0  0  0  0  0  0
  130.9140  120.0540  134.4000 C   0  0  0  0  0  2  0  0  0  0  0  0
  130.5830  119.2340  135.6630 C   0  0  0  0  0  2  0  0  0  0  0  0
  130.1230  117.9440  135.7740 N   0  0  0  0  0  0  0  0  0  0  0  0
  129.9120  117.1920  136.9370 C   0  0  0  0  0  0  0  0  0  0  0  0
  130.7950  116.7180  137.6520 O   0  0  0  0  0  0  0  0  0  0  0  0
  128.5130  116.8990  137.3280 C   0  0  0  0  0  0  0  0  0  0  0  0
  128.2720  116.4250  138.6190 C   0  0  0  0  0  3  0  0  0  0  0  0
  126.9660  116.2050  139.0480 C   0  0  0  0  0  3  0  0  0  0  0  0
  125.8980  116.4790  138.1960 C   0  0  0  0  0  3  0  0  0  0  0  0
  126.1360  116.9770  136.9170 C   0  0  0  0  0  3  0  0  0  0  0  0
  127.4420  117.1970  136.4870 C   0  0  0  0  0  3  0  0  0  0  0  0
  130.8810  113.7680  130.3870 C   0  0  0  0  0  3  0  0  0  0  0  0
  1  2  1  0
  2  3  2  0
  2  4  1  0
  4  5  2  0
  5  6  1  0
  6  7  2  0
  7  8  1  0
  8  9  1  0
  9 10  2  0
 10 11  1  0
 11 12  2  0
 12 13  1  0
 13 14  2  0
 14 15  1  0
 15 16  1  0
 16 17  1  0
 17 18  1  0
 18 19  1  0
 19 20  1  0
 20 21  2  0
 20 22  1  0
 22 23  1  0
 23 24  1  0
 19 25  1  0
 25 26  1  0
 26 27  1  0
 27 28  1  0
 28 29  2  0
 28 30  1  0
 30 31  2  0
 31 32  1  0
 32 33  2  0
 33 34  1  0
 34 35  2  0
  8 36  2  0
 36  4  1  0
 14  9  1  0
 27 17  1  0
 35 30  1  0
 24 22  1  0
M  RAD  8   1   2   5   2   6   2   7   2  10   2  11   2  12   2  13   2
M  RAD  8  16   3  17   2  18   3  22   2  23   3  24   3  25   3  26   3
M  RAD  6  31   2  32   2  33   2  34   2  35   2  36   2
M  END
$$$$

     RDKit          3D

 36 40  0  0  0  0  0  0  0  0999 V2000
  136.8150  111.7810  129.4400 O   0  0  0  0  0  1  0  0  0  0  0  0
  136.1630  112.6370  130.1140 C   0  0  0  0  0  0  0  0  0  0  0  0
  136.4220  112.9970  131.3040 O   0  0  0  0  0  0  0  0  0  0  0  0
  134.9440  113.2200  129.4750 C   0  0  0  0  0  0  0  0  0  0  0  0
  134.3510  112.6110  128.3670 C   0  0  0  0  0  3  0  0  0  0  0  0
  133.2780  113.2140  127.7160 C   0  0  0  0  0  3  0  0  0  0  0  0
  132.8120  114.4560  128.1450 C   0  0  0  0  0  3  0  0  0  0  0  0
  133.3930  115.0950  129.2440 C   0  0  0  0  0  0  0  0  0  0  0  0
  132.9760  116.4340  129.6620 C   0  0  0  0  0  0  0  0  0  0  0  0
  133.6670  117.5300  129.1210 C   0  0  0  0  0  3  0  0  0  0  0  0
  133.3400  118.8420  129.4540 C   0  0  0  0  0  3  0  0  0  0  0  0
  132.3060  119.0860  130.3460 C   0  0  0  0  0  3  0  0  0  0  0  0
  131.5990  118.0170  130.8880 C   0  0  0  0  0  3  0  0  0  0  0  0
  131.9080  116.6930  130.5500 C   0  0  0  0  0  0  0  0  0  0  0  0
  130.8630  115.4610  131.3310 S   0  0  0  0  0  0  0  0  0  0  0  0
  130.2900  116.4160  132.6070 C   0  0  0  0  0  2  0  0  0  0  0  0
  129.7420  117.1100  133.7200 C   0  0  0  0  0  3  0  0  0  0  0  0
  130.1080  118.4850  134.0100 C   0  0  0  0  0  2  0  0  0  0  0  0
  130.1310  119.4080  135.0300 N   0  0  0  0  0  0  0  0  0  0  0  0
  130.8160  120.6180  135.0500 C   0  0  0  0  0  0  0  0  0  0  0  0
  131.3270  121.1080  136.0570 O   0  0  0  0  0  0  0  0  0  0  0  0
  130.9320  121.2550  133.7130 C   0  0  0  0  0  3  0  0  0  0  0  0
  132.0680  121.0170  132.8750 C   0  0  0  0  0  2  0  0  0  0  0  0
  131.8010  122.3650  133.4660 C   0  0  0  0  0  2  0  0  0  0  0  0
  129.4650  118.7550  136.0270 C   0  0  0  0  0  2  0  0  0  0  0  0
  128.9680  117.3040  135.8760 C   0  0  0  0  0  2  0  0  0  0  0  0
  129.0910  116.4410  134.8130 N   0  0  0  0  0  0  0  0  0  0  0  0
  128.7050  115.0970  134.7340 C   0  0  0  0  0  0  0  0  0  0  0  0
  128.9940  114.2210  135.5480 O   0  0  0  0  0  0  0  0  0  0  0  0
  127.9170  114.6710  133.5530 C   0  0  0  0  0  0  0  0  0  0  0  0
  128.2990  113.5050  132.8880 C   0  0  0  0  0  3  0  0  0  0  0  0
  127.5430  113.0330  131.8190 C   0  0  0  0  0  3  0  0  0  0  0  0
  126.3920  113.7140  131.4250 C   0  0  0  0  0  3  0  0  0  0  0  0
  125.9960  114.8640  132.1040 C   0  0  0  0  0  3  0  0  0  0  0  0
  126.7520  115.3350  133.1750 C   0  0  0  0  0  3  0  0  0  0  0  0
  134.4350  114.4450  129.9160 C   0  0  0  0  0  3  0  0  0  0  0  0
  1  2  1  0
  2  3  2  0
  2  4  1  0
  4  5  2  0
  5  6  1  0
  6  7  2  0
  7  8  1  0
  8  9  1  0
  9 10  2  0
 10 11  1  0
 11 12  2  0
 12 13  1  0
 13 14  2  0
 14 15  1  0
 15 16  1  0
 16 17  1  0
 17 18  1  0
 18 19  1  0
 19 20  1  0
 20 21  2  0
 20 22  1  0
 22 23  1  0
 23 24  1  0
 19 25  1  0
 25 26  1  0
 26 27  1  0
 27 28  1  0
 28 29  2  0
 28 30  1  0
 30 31  2  0
 31 32  1  0
 32 33  2  0
 33 34  1  0
 34 35  2  0
  8 36  2  0
 36  4  1  0
 14  9  1  0
 27 17  1  0
 35 30  1  0
 24 22  1  0
M  RAD  8   1   2   5   2   6   2   7   2  10   2  11   2  12   2  13   2
M  RAD  8  16   3  17   2  18   3  22   2  23   3  24   3  25   3  26   3
M  RAD  6  31   2  32   2  33   2  34   2  35   2  36   2
M  END
$$$$

     RDKit          3D

 36 40  0  0  0  0  0  0  0  0999 V2000
  130.9560  118.2590  136.4820 O   0  0  0  0  0  1  0  0  0  0  0  0
  129.8450  118.6030  135.9700 C   0  0  0  0  0  0  0  0  0  0  0  0
  129.5710  119.7490  135.4960 O   0  0  0  0  0  0  0  0  0  0  0  0
  128.7460  117.5910  135.9910 C   0  0  0  0  0  0  0  0  0  0  0  0
  128.1090  117.2450  137.1840 C   0  0  0  0  0  3  0  0  0  0  0  0
  127.1570  116.2290  137.2100 C   0  0  0  0  0  3  0  0  0  0  0  0
  126.8610  115.5220  136.0450 C   0  0  0  0  0  3  0  0  0  0  0  0
  127.4910  115.8380  134.8390 C   0  0  0  0  0  0  0  0  0  0  0  0
  127.2590  115.0570  133.6230 C   0  0  0  0  0  0  0  0  0  0  0  0
  125.9770  115.1040  133.0530 C   0  0  0  0  0  3  0  0  0  0  0  0
  125.6620  114.3990  131.8940 C   0  0  0  0  0  3  0  0  0  0  0  0
  126.6330  113.6230  131.2780 C   0  0  0  0  0  3  0  0  0  0  0  0
  127.9140  113.5690  131.8170 C   0  0  0  0  0  3  0  0  0  0  0  0
  128.2480  114.2850  132.9740 C   0  0  0  0  0  0  0  0  0  0  0  0
  129.9560  114.1060  133.4940 S   0  0  0  0  0  0  0  0  0  0  0  0
  130.6930  114.6320  132.0610 C   0  0  0  0  0  2  0  0  0  0  0  0
  131.3980  115.1370  130.9360 C   0  0  0  0  0  3  0  0  0  0  0  0
  132.2960  114.2960  130.1640 C   0  0  0  0  0  2  0  0  0  0  0  0
  133.3580  114.3600  129.2920 N   0  0  0  0  0  0  0  0  0  0  0  0
  134.1970  113.3170  128.9170 C   0  0  0  0  0  0  0  0  0  0  0  0
  133.8300  112.3250  128.2850 O   0  0  0  0  0  0  0  0  0  0  0  0
  135.6170  113.5320  129.2970 C   0  0  0  0  0  3  0  0  0  0  0  0
  136.5830  112.4830  129.1820 C   0  0  0  0  0  2  0  0  0  0  0  0
  136.1700  113.0210  130.5140 C   0  0  0  0  0  2  0  0  0  0  0  0
  133.4510  115.7000  129.0450 C   0  0  0  0  0  2  0  0  0  0  0  0
  132.5480  116.7340  129.7460 C   0  0  0  0  0  2  0  0  0  0  0  0
  131.5650  116.5430  130.6870 N   0  0  0  0  0  0  0  0  0  0  0  0
  130.8170  117.5100  131.3720 C   0  0  0  0  0  0  0  0  0  0  0  0
  129.6980  117.3390  131.8530 O   0  0  0  0  0  0  0  0  0  0  0  0
  131.3920  118.8700  131.4980 C   0  0  0  0  0  0  0  0  0  0  0  0
  131.8350  119.5120  130.3410 C   0  0  0  0  0  3  0  0  0  0  0  0
  132.3160  120.8160  130.4070 C   0  0  0  0  0  3  0  0  0  0  0  0
  132.3360  121.4890  131.6270 C   0  0  0  0  0  3  0  0  0  0  0  0
  131.8710  120.8600  132.7790 C   0  0  0  0  0  3  0  0  0  0  0  0
  131.3890  119.5540  132.7120 C   0  0  0  0  0  3  0  0  0  0  0  0
  128.4060  116.8990  134.8260 C   0  0  0  0  0  3  0  0  0  0  0  0
  1  2  1  0
  2  3  2  0
  2  4  1  0
  4  5  2  0
  5  6  1  0
  6  7  2  0
  7  8  1  0
  8  9  1  0
  9 10  2  0
 10 11  1  0
 11 12  2  0
 12 13  1  0
 13 14  2  0
 14 15  1  0
 15 16  1  0
 16 17  1  0
 17 18  1  0
 18 19  1  0
 19 20  1  0
 20 21  2  0
 20 22  1  0
 22 23  1  0
 23 24  1  0
 19 25  1  0
 25 26  1  0
 26 27  1  0
 27 28  1  0
 28 29  2  0
 28 30  1  0
 30 31  2  0
 31 32  1  0
 32 33  2  0
 33 34  1  0
 34 35  2  0
  8 36  2  0
 36  4  1  0
 14  9  1  0
 27 17  1  0
 35 30  1  0
 24 22  1  0
M  RAD  8   1   2   5   2   6   2   7   2  10   2  11   2  12   2  13   2
M  RAD  8  16   3  17   2  18   3  22   2  23   3  24   3  25   3  26   3
M  RAD  6  31   2  32   2  33   2  34   2  35   2  36   2
M  END
$$$$

     RDKit          3D

 36 40  0  0  0  0  0  0  0  0999 V2000
  133.6540  112.0050  130.0910 O   0  0  0  0  0  1  0  0  0  0  0  0
  133.5470  112.9910  129.2970 C   0  0  0  0  0  0  0  0  0  0  0  0
  134.2310  113.1700  128.2420 O   0  0  0  0  0  0  0  0  0  0  0  0
  132.5800  114.0650  129.6760 C   0  0  0  0  0  0  0  0  0  0  0  0
  132.9860  115.3970  129.7760 C   0  0  0  0  0  3  0  0  0  0  0  0
  132.1040  116.3750  130.2270 C   0  0  0  0  0  3  0  0  0  0  0  0
  130.8140  116.0220  130.6210 C   0  0  0  0  0  3  0  0  0  0  0  0
  130.3830  114.6950  130.5430 C   0  0  0  0  0  0  0  0  0  0  0  0
  129.0640  114.2870  131.0270 C   0  0  0  0  0  0  0  0  0  0  0  0
  128.0810  113.9880  130.0690 C   0  0  0  0  0  3  0  0  0  0  0  0
  126.7980  113.5860  130.4330 C   0  0  0  0  0  3  0  0  0  0  0  0
  126.4690  113.4760  131.7760 C   0  0  0  0  0  3  0  0  0  0  0  0
  127.4280  113.7560  132.7440 C   0  0  0  0  0  3  0  0  0  0  0  0
  128.7260  114.1470  132.3920 C   0  0  0  0  0  0  0  0  0  0  0  0
  129.8220  114.4330  133.7840 S   0  0  0  0  0  0  0  0  0  0  0  0
  129.6700  116.1190  133.8580 C   0  0  0  0  0  2  0  0  0  0  0  0
  129.4160  117.5140  133.9550 C   0  0  0  0  0  3  0  0  0  0  0  0
  130.2130  118.4820  133.2200 C   0  0  0  0  0  2  0  0  0  0  0  0
  130.5690  119.8110  133.2150 N   0  0  0  0  0  0  0  0  0  0  0  0
  131.6030  120.3980  132.4950 C   0  0  0  0  0  0  0  0  0  0  0  0
  132.1320  121.4700  132.7920 O   0  0  0  0  0  0  0  0  0  0  0  0
  132.0670  119.5770  131.3480 C   0  0  0  0  0  3  0  0  0  0  0  0
  133.2370  119.9350  130.6050 C   0  0  0  0  0  2  0  0  0  0  0  0
  131.8740  119.9820  129.9890 C   0  0  0  0  0  2  0  0  0  0  0  0
  129.7700  120.3290  134.1940 C   0  0  0  0  0  2  0  0  0  0  0  0
  128.8300  119.4520  135.0450 C   0  0  0  0  0  2  0  0  0  0  0  0
  128.6310  118.0920  135.0100 N   0  0  0  0  0  0  0  0  0  0  0  0
  127.8330  117.3080  135.8540 C   0  0  0  0  0  0  0  0  0  0  0  0
  127.0020  116.4790  135.4850 O   0  0  0  0  0  0  0  0  0  0  0  0
  127.9600  117.5140  137.3160 C   0  0  0  0  0  0  0  0  0  0  0  0
  127.0310  116.8980  138.1550 C   0  0  0  0  0  3  0  0  0  0  0  0
  127.1570  117.0090  139.5360 C   0  0  0  0  0  3  0  0  0  0  0  0
  128.2250  117.7180  140.0830 C   0  0  0  0  0  3  0  0  0  0  0  0
  129.1680  118.3130  139.2480 C   0  0  0  0  0  3  0  0  0  0  0  0
  129.0410  118.2010  137.8650 C   0  0  0  0  0  3  0  0  0  0  0  0
  131.2700  113.7370  130.0360 C   0  0  0  0  0  3  0  0  0  0  0  0
  1  2  1  0
  2  3  2  0
  2  4  1  0
  4  5  2  0
  5  6  1  0
  6  7  2  0
  7  8  1  0
  8  9  1  0
  9 10  2  0
 10 11  1  0
 11 12  2  0
 12 13  1  0
 13 14  2  0
 14 15  1  0
 15 16  1  0
 16 17  1  0
 17 18  1  0
 18 19  1  0
 19 20  1  0
 20 21  2  0
 20 22  1  0
 22 23  1  0
 23 24  1  0
 19 25  1  0
 25 26  1  0
 26 27  1  0
 27 28  1  0
 28 29  2  0
 28 30  1  0
 30 31  2  0
 31 32  1  0
 32 33  2  0
 33 34  1  0
 34 35  2  0
  8 36  2  0
 36  4  1  0
 14  9  1  0
 27 17  1  0
 35 30  1  0
 24 22  1  0
M  RAD  8   1   2   5   2   6   2   7   2  10   2  11   2  12   2  13   2
M  RAD  8  16   3  17   2  18   3  22   2  23   3  24   3  25   3  26   3
M  RAD  6  31   2  32   2  33   2  34   2  35   2  36   2
M  END
$$$$

