
     RDKit          3D

 73 77  0  0  0  0  0  0  0  0999 V2000
  128.7380  122.0200  134.5760 C   0  0  0  0  0  0  0  0  0  0  0  0
  129.2080  120.6000  134.6680 C   0  0  0  0  0  0  0  0  0  0  0  0
  129.7490  119.9770  133.5690 C   0  0  0  0  0  0  0  0  0  0  0  0
  130.1500  118.6780  133.7560 C   0  0  0  0  0  0  0  0  0  0  0  0
  130.7150  117.8900  132.7570 N   0  0  0  0  0  0  0  0  0  0  0  0
  131.2160  118.2510  131.5340 C   0  0  0  0  0  0  0  0  0  0  0  0
  131.2390  119.3960  131.0930 O   0  0  0  0  0  0  0  0  0  0  0  0
  131.7630  117.1250  130.6910 C   0  0  0  0  0  0  0  0  0  0  0  0
  132.8700  117.4370  129.8800 C   0  0  0  0  0  0  0  0  0  0  0  0
  133.4490  116.4780  129.0460 C   0  0  0  0  0  0  0  0  0  0  0  0
  132.9310  115.1900  129.0100 C   0  0  0  0  0  0  0  0  0  0  0  0
  133.4880  114.1930  128.1610 N   0  0  0  0  0  0  0  0  0  0  0  0
  134.5520  113.0500  128.7950 S   0  0  0  0  0  6  0  0  0  0  0  0
  135.2810  112.5310  127.6570 O   0  0  0  0  0  0  0  0  0  0  0  0
  133.8420  112.1680  129.6930 O   0  0  0  0  0  0  0  0  0  0  0  0
  135.6760  114.0570  129.7430 C   0  0  0  0  0  0  0  0  0  0  0  0
  136.7570  113.1930  130.3550 C   0  0  0  0  0  0  0  0  0  0  0  0
  136.3140  112.7320  131.6290 O   0  0  0  0  0  0  0  0  0  0  0  0
  131.8390  114.8580  129.8140 C   0  0  0  0  0  0  0  0  0  0  0  0
  131.2300  115.8090  130.6610 C   0  0  0  0  0  0  0  0  0  0  0  0
  130.1330  115.4350  131.4740 N   0  0  0  0  0  0  0  0  0  0  0  0
  128.7940  115.7910  130.9340 C   0  0  0  0  0  0  0  0  0  0  0  0
  127.9030  114.5670  130.7080 C   0  0  0  0  0  0  0  0  0  0  0  0
  127.7760  113.7350  131.9720 C   0  0  0  0  0  0  0  0  0  0  0  0
  129.0390  113.6720  132.8160 C   0  0  0  0  0  0  0  0  0  0  0  0
  130.2740  114.0510  131.9940 C   0  0  0  0  0  0  0  0  0  0  0  0
  126.8760  112.5170  131.9210 C   0  0  0  0  0  0  0  0  0  0  0  0
  126.4470  113.7230  132.7020 C   0  0  0  0  0  0  0  0  0  0  0  0
  130.0290  118.0440  134.9360 N   0  0  0  0  0  0  0  0  0  0  0  0
  129.4960  118.7130  135.9670 C   0  0  0  0  0  0  0  0  0  0  0  0
  129.3700  118.0640  137.1930 N   0  0  0  0  0  0  0  0  0  0  0  0
  128.1320  118.3000  137.9360 C   0  0  0  0  0  0  0  0  0  0  0  0
  127.0340  117.3820  137.4180 C   0  0  0  0  0  0  0  0  0  0  0  0
  127.5200  115.9450  137.4400 C   0  0  0  0  0  0  0  0  0  0  0  0
  126.5740  115.1410  136.8890 F   0  0  0  0  0  0  0  0  0  0  0  0
  127.6450  115.5390  138.7340 F   0  0  0  0  0  0  0  0  0  0  0  0
  128.8400  115.7250  136.7260 C   0  0  0  0  0  0  0  0  0  0  0  0
  129.8790  116.6960  137.2690 C   0  0  0  0  0  0  0  0  0  0  0  0
  129.0760  119.9810  135.8590 N   0  0  0  0  0  0  0  0  0  0  0  0
  128.6030  122.4279  135.5886 H   0  0  0  0  0  0  0  0  0  0  0  0
  129.4857  122.6194  134.0359 H   0  0  0  0  0  0  0  0  0  0  0  0
  127.7804  122.0550  134.0359 H   0  0  0  0  0  0  0  0  0  0  0  0
  129.8540  120.4875  132.6003 H   0  0  0  0  0  0  0  0  0  0  0  0
  130.7760  116.9040  133.0010 H   0  0  0  0  0  0  0  0  0  0  0  0
  133.2868  118.4547  129.9034 H   0  0  0  0  0  0  0  0  0  0  0  0
  134.3134  116.7423  128.4191 H   0  0  0  0  0  0  0  0  0  0  0  0
  133.7350  114.4660  127.2090 H   0  0  0  0  0  0  0  0  0  0  0  0
  136.1386  114.8059  129.0833 H   0  0  0  0  0  0  0  0  0  0  0  0
  135.1186  114.5602  130.5468 H   0  0  0  0  0  0  0  0  0  0  0  0
  136.9567  112.3322  129.6999 H   0  0  0  0  0  0  0  0  0  0  0  0
  137.6808  113.7787  130.4713 H   0  0  0  0  0  0  0  0  0  0  0  0
  135.3450  112.6470  131.5800 H   0  0  0  0  0  0  0  0  0  0  0  0
  131.4441  113.8317  129.7868 H   0  0  0  0  0  0  0  0  0  0  0  0
  128.2943  116.4630  131.6473 H   0  0  0  0  0  0  0  0  0  0  0  0
  128.9475  116.2747  129.9580 H   0  0  0  0  0  0  0  0  0  0  0  0
  126.9026  114.9043  130.3992 H   0  0  0  0  0  0  0  0  0  0  0  0
  128.3621  113.9433  129.9269 H   0  0  0  0  0  0  0  0  0  0  0  0
  128.9416  114.3706  133.6601 H   0  0  0  0  0  0  0  0  0  0  0  0
  129.1647  112.6410  133.1782 H   0  0  0  0  0  0  0  0  0  0  0  0
  131.1684  113.9908  132.6315 H   0  0  0  0  0  0  0  0  0  0  0  0
  130.3717  113.3554  131.1475 H   0  0  0  0  0  0  0  0  0  0  0  0
  126.3584  112.2557  130.9862 H   0  0  0  0  0  0  0  0  0  0  0  0
  127.0028  111.4488  132.1511 H   0  0  0  0  0  0  0  0  0  0  0  0
  125.6155  114.3450  132.3390 H   0  0  0  0  0  0  0  0  0  0  0  0
  126.1302  113.9029  133.7399 H   0  0  0  0  0  0  0  0  0  0  0  0
  128.3031  118.0976  139.0036 H   0  0  0  0  0  0  0  0  0  0  0  0
  127.8225  119.3469  137.8010 H   0  0  0  0  0  0  0  0  0  0  0  0
  126.1446  117.4776  138.0581 H   0  0  0  0  0  0  0  0  0  0  0  0
  126.7773  117.6652  136.3865 H   0  0  0  0  0  0  0  0  0  0  0  0
  129.1800  114.6925  136.8940 H   0  0  0  0  0  0  0  0  0  0  0  0
  128.7064  115.8963  135.6477 H   0  0  0  0  0  0  0  0  0  0  0  0
  130.0985  116.4464  138.3176 H   0  0  0  0  0  0  0  0  0  0  0  0
  130.7968  116.6175  136.6678 H   0  0  0  0  0  0  0  0  0  0  0  0
  1  2  1  0
  2  3  2  0
  3  4  1  0
  4  5  1  0
  5  6  1  0
  6  7  2  0
  6  8  1  0
  8  9  2  0
  9 10  1  0
 10 11  2  0
 11 12  1  0
 12 13  1  0
 13 14  2  0
 13 15  2  0
 13 16  1  0
 16 17  1  0
 17 18  1  0
 11 19  1  0
 19 20  2  0
 20 21  1  0
 21 22  1  0
 22 23  1  0
 23 24  1  0
 24 25  1  0
 25 26  1  0
 24 27  1  0
 27 28  1  0
  4 29  2  0
 29 30  1  0
 30 31  1  0
 31 32  1  0
 32 33  1  0
 33 34  1  0
 34 35  1  0
 34 36  1  0
 34 37  1  0
 37 38  1  0
 30 39  2  0
 39  2  1  0
 20  8  1  0
 26 21  1  0
 38 31  1  0
 28 24  1  0
  1 40  1  0
  1 41  1  0
  1 42  1  0
  3 43  1  0
  5 44  1  0
  9 45  1  0
 10 46  1  0
 12 47  1  0
 16 48  1  0
 16 49  1  0
 17 50  1  0
 17 51  1  0
 18 52  1  0
 19 53  1  0
 22 54  1  0
 22 55  1  0
 23 56  1  0
 23 57  1  0
 25 58  1  0
 25 59  1  0
 26 60  1  0
 26 61  1  0
 27 62  1  0
 27 63  1  0
 28 64  1  0
 28 65  1  0
 32 66  1  0
 32 67  1  0
 33 68  1  0
 33 69  1  0
 37 70  1  0
 37 71  1  0
 38 72  1  0
 38 73  1  0
M  END
$$$$

     RDKit          3D

 73 77  0  0  0  0  0  0  0  0999 V2000
  129.0640  122.5460  134.2440 C   0  0  0  0  0  0  0  0  0  0  0  0
  129.1900  121.0550  134.3240 C   0  0  0  0  0  0  0  0  0  0  0  0
  129.8920  120.3660  133.3630 C   0  0  0  0  0  0  0  0  0  0  0  0
  129.9500  119.0060  133.5260 C   0  0  0  0  0  0  0  0  0  0  0  0
  130.6120  118.1480  132.6520 N   0  0  0  0  0  0  0  0  0  0  0  0
  131.0750  118.3760  131.3820 C   0  0  0  0  0  0  0  0  0  0  0  0
  130.9650  119.4360  130.7730 O   0  0  0  0  0  0  0  0  0  0  0  0
  131.7580  117.2090  130.7130 C   0  0  0  0  0  0  0  0  0  0  0  0
  132.9170  117.5080  129.9740 C   0  0  0  0  0  0  0  0  0  0  0  0
  133.6220  116.5090  129.2990 C   0  0  0  0  0  0  0  0  0  0  0  0
  133.1800  115.1930  129.3540 C   0  0  0  0  0  0  0  0  0  0  0  0
  133.8670  114.1540  128.6650 N   0  0  0  0  0  0  0  0  0  0  0  0
  134.9280  113.1510  129.5070 S   0  0  0  0  0  6  0  0  0  0  0  0
  134.1740  111.9470  129.7910 O   0  0  0  0  0  0  0  0  0  0  0  0
  135.5710  113.8970  130.5640 O   0  0  0  0  0  0  0  0  0  0  0  0
  136.1410  112.7470  128.2650 C   0  0  0  0  0  0  0  0  0  0  0  0
  137.4430  112.3450  128.9220 C   0  0  0  0  0  0  0  0  0  0  0  0
  137.1770  111.3340  129.8920 O   0  0  0  0  0  0  0  0  0  0  0  0
  132.0370  114.8750  130.0900 C   0  0  0  0  0  0  0  0  0  0  0  0
  131.3020  115.8650  130.7760 C   0  0  0  0  0  0  0  0  0  0  0  0
  130.1560  115.5050  131.5260 N   0  0  0  0  0  0  0  0  0  0  0  0
  128.8540  115.8190  130.8810 C   0  0  0  0  0  0  0  0  0  0  0  0
  127.9960  114.5730  130.6420 C   0  0  0  0  0  0  0  0  0  0  0  0
  127.7920  113.7890  131.9260 C   0  0  0  0  0  0  0  0  0  0  0  0
  128.9940  113.7790  132.8570 C   0  0  0  0  0  0  0  0  0  0  0  0
  130.2780  114.1450  132.1090 C   0  0  0  0  0  0  0  0  0  0  0  0
  126.9140  112.5560  131.8610 C   0  0  0  0  0  0  0  0  0  0  0  0
  126.4160  113.7840  132.5620 C   0  0  0  0  0  0  0  0  0  0  0  0
  129.3630  118.3730  134.5580 N   0  0  0  0  0  0  0  0  0  0  0  0
  128.6980  119.1050  135.4600 C   0  0  0  0  0  0  0  0  0  0  0  0
  128.0890  118.4570  136.5330 N   0  0  0  0  0  0  0  0  0  0  0  0
  127.7920  117.0350  136.3560 C   0  0  0  0  0  0  0  0  0  0  0  0
  129.0350  116.2060  136.6520 C   0  0  0  0  0  0  0  0  0  0  0  0
  129.5760  116.5750  138.0210 C   0  0  0  0  0  0  0  0  0  0  0  0
  130.7370  115.9030  138.2410 F   0  0  0  0  0  0  0  0  0  0  0  0
  128.7080  116.1380  138.9750 F   0  0  0  0  0  0  0  0  0  0  0  0
  129.8150  118.0600  138.2150 C   0  0  0  0  0  0  0  0  0  0  0  0
  128.5460  118.8270  137.8710 C   0  0  0  0  0  0  0  0  0  0  0  0
  128.5930  120.4380  135.3640 N   0  0  0  0  0  0  0  0  0  0  0  0
  129.0285  122.9660  135.2600 H   0  0  0  0  0  0  0  0  0  0  0  0
  129.9304  122.9589  133.7066 H   0  0  0  0  0  0  0  0  0  0  0  0
  128.1405  122.8076  133.7066 H   0  0  0  0  0  0  0  0  0  0  0  0
  130.3767  120.8743  132.5164 H   0  0  0  0  0  0  0  0  0  0  0  0
  130.7880  117.2250  133.0410 H   0  0  0  0  0  0  0  0  0  0  0  0
  133.2745  118.5472  129.9269 H   0  0  0  0  0  0  0  0  0  0  0  0
  134.5252  116.7636  128.7251 H   0  0  0  0  0  0  0  0  0  0  0  0
  134.1850  114.3450  127.7160 H   0  0  0  0  0  0  0  0  0  0  0  0
  135.7700  111.9126  127.6518 H   0  0  0  0  0  0  0  0  0  0  0  0
  136.3147  113.6289  127.6308 H   0  0  0  0  0  0  0  0  0  0  0  0
  138.1353  111.9544  128.1616 H   0  0  0  0  0  0  0  0  0  0  0  0
  137.9003  113.2187  129.4094 H   0  0  0  0  0  0  0  0  0  0  0  0
  136.6230  110.6610  129.4580 H   0  0  0  0  0  0  0  0  0  0  0  0
  131.7017  113.8284  130.1361 H   0  0  0  0  0  0  0  0  0  0  0  0
  128.2972  116.5102  131.5308 H   0  0  0  0  0  0  0  0  0  0  0  0
  129.0693  116.2669  129.8997 H   0  0  0  0  0  0  0  0  0  0  0  0
  127.0153  114.8827  130.2517 H   0  0  0  0  0  0  0  0  0  0  0  0
  128.5160  113.9267  129.9196 H   0  0  0  0  0  0  0  0  0  0  0  0
  128.8287  114.5082  133.6638 H   0  0  0  0  0  0  0  0  0  0  0  0
  129.1076  112.7648  133.2674 H   0  0  0  0  0  0  0  0  0  0  0  0
  131.1261  114.1235  132.8091 H   0  0  0  0  0  0  0  0  0  0  0  0
  130.4439  113.4188  131.2996 H   0  0  0  0  0  0  0  0  0  0  0  0
  126.4663  112.2508  130.9037 H   0  0  0  0  0  0  0  0  0  0  0  0
  127.0385  111.4996  132.1414 H   0  0  0  0  0  0  0  0  0  0  0  0
  125.6038  114.3783  132.1181 H   0  0  0  0  0  0  0  0  0  0  0  0
  126.0253  113.9987  133.5676 H   0  0  0  0  0  0  0  0  0  0  0  0
  126.9856  116.7422  137.0445 H   0  0  0  0  0  0  0  0  0  0  0  0
  127.4764  116.8571  135.3174 H   0  0  0  0  0  0  0  0  0  0  0  0
  128.7750  115.1373  136.6365 H   0  0  0  0  0  0  0  0  0  0  0  0
  129.8007  116.4086  135.8887 H   0  0  0  0  0  0  0  0  0  0  0  0
  130.0879  118.2537  139.2628 H   0  0  0  0  0  0  0  0  0  0  0  0
  130.6324  118.3891  137.5565 H   0  0  0  0  0  0  0  0  0  0  0  0
  127.7628  118.5841  138.6042 H   0  0  0  0  0  0  0  0  0  0  0  0
  128.7568  119.9063  137.8963 H   0  0  0  0  0  0  0  0  0  0  0  0
  1  2  1  0
  2  3  2  0
  3  4  1  0
  4  5  1  0
  5  6  1  0
  6  7  2  0
  6  8  1  0
  8  9  2  0
  9 10  1  0
 10 11  2  0
 11 12  1  0
 12 13  1  0
 13 14  2  0
 13 15  2  0
 13 16  1  0
 16 17  1  0
 17 18  1  0
 11 19  1  0
 19 20  2  0
 20 21  1  0
 21 22  1  0
 22 23  1  0
 23 24  1  0
 24 25  1  0
 25 26  1  0
 24 27  1  0
 27 28  1  0
  4 29  2  0
 29 30  1  0
 30 31  1  0
 31 32  1  0
 32 33  1  0
 33 34  1  0
 34 35  1  0
 34 36  1  0
 34 37  1  0
 37 38  1  0
 30 39  2  0
 39  2  1  0
 20  8  1  0
 26 21  1  0
 38 31  1  0
 28 24  1  0
  1 40  1  0
  1 41  1  0
  1 42  1  0
  3 43  1  0
  5 44  1  0
  9 45  1  0
 10 46  1  0
 12 47  1  0
 16 48  1  0
 16 49  1  0
 17 50  1  0
 17 51  1  0
 18 52  1  0
 19 53  1  0
 22 54  1  0
 22 55  1  0
 23 56  1  0
 23 57  1  0
 25 58  1  0
 25 59  1  0
 26 60  1  0
 26 61  1  0
 27 62  1  0
 27 63  1  0
 28 64  1  0
 28 65  1  0
 32 66  1  0
 32 67  1  0
 33 68  1  0
 33 69  1  0
 37 70  1  0
 37 71  1  0
 38 72  1  0
 38 73  1  0
M  END
$$$$

     RDKit          3D

 73 77  0  0  0  0  0  0  0  0999 V2000
  131.5170  122.6130  134.6750 C   0  0  0  0  0  0  0  0  0  0  0  0
  131.0480  121.1960  134.5330 C   0  0  0  0  0  0  0  0  0  0  0  0
  131.5500  120.3980  133.5320 C   0  0  0  0  0  0  0  0  0  0  0  0
  131.0590  119.1180  133.4870 C   0  0  0  0  0  0  0  0  0  0  0  0
  131.4480  118.1710  132.5430 N   0  0  0  0  0  0  0  0  0  0  0  0
  131.4400  118.2430  131.1750 C   0  0  0  0  0  0  0  0  0  0  0  0
  131.0540  119.2090  130.5230 O   0  0  0  0  0  0  0  0  0  0  0  0
  131.9390  117.0170  130.4510 C   0  0  0  0  0  0  0  0  0  0  0  0
  133.0430  117.2070  129.5980 C   0  0  0  0  0  0  0  0  0  0  0  0
  133.5800  116.1470  128.8640 C   0  0  0  0  0  0  0  0  0  0  0  0
  133.0240  114.8790  128.9730 C   0  0  0  0  0  0  0  0  0  0  0  0
  133.5380  113.7800  128.2290 N   0  0  0  0  0  0  0  0  0  0  0  0
  134.7870  112.8460  128.8680 S   0  0  0  0  0  6  0  0  0  0  0  0
  135.6070  112.4730  127.7340 O   0  0  0  0  0  0  0  0  0  0  0  0
  134.2420  111.8440  129.7570 O   0  0  0  0  0  0  0  0  0  0  0  0
  135.7030  114.0340  129.8300 C   0  0  0  0  0  0  0  0  0  0  0  0
  136.6020  113.3210  130.8160 C   0  0  0  0  0  0  0  0  0  0  0  0
  137.1350  112.1550  130.1940 O   0  0  0  0  0  0  0  0  0  0  0  0
  131.9350  114.6680  129.8220 C   0  0  0  0  0  0  0  0  0  0  0  0
  131.3690  115.7230  130.5690 C   0  0  0  0  0  0  0  0  0  0  0  0
  130.2740  115.4710  131.4310 N   0  0  0  0  0  0  0  0  0  0  0  0
  128.9410  115.8420  130.8870 C   0  0  0  0  0  0  0  0  0  0  0  0
  127.9910  114.6460  130.7840 C   0  0  0  0  0  0  0  0  0  0  0  0
  127.8540  113.9330  132.1170 C   0  0  0  0  0  0  0  0  0  0  0  0
  129.1310  113.8840  132.9410 C   0  0  0  0  0  0  0  0  0  0  0  0
  130.3630  114.1320  132.0670 C   0  0  0  0  0  0  0  0  0  0  0  0
  126.8990  112.7580  132.1890 C   0  0  0  0  0  0  0  0  0  0  0  0
  126.5430  114.0450  132.8690 C   0  0  0  0  0  0  0  0  0  0  0  0
  130.1430  118.6610  134.3600 N   0  0  0  0  0  0  0  0  0  0  0  0
  129.7000  119.4920  135.3120 C   0  0  0  0  0  0  0  0  0  0  0  0
  128.7540  119.0240  136.2220 N   0  0  0  0  0  0  0  0  0  0  0  0
  128.1980  117.6960  135.9650 C   0  0  0  0  0  0  0  0  0  0  0  0
  129.1390  116.6270  136.5040 C   0  0  0  0  0  0  0  0  0  0  0  0
  129.4500  116.9120  137.9610 C   0  0  0  0  0  0  0  0  0  0  0  0
  130.3630  116.0120  138.4100 F   0  0  0  0  0  0  0  0  0  0  0  0
  128.3270  116.7040  138.7040 F   0  0  0  0  0  0  0  0  0  0  0  0
  129.9610  118.3160  138.2250 C   0  0  0  0  0  0  0  0  0  0  0  0
  128.9910  119.3280  137.6320 C   0  0  0  0  0  0  0  0  0  0  0  0
  130.1290  120.7570  135.4160 N   0  0  0  0  0  0  0  0  0  0  0  0
  131.6008  122.8663  135.7422 H   0  0  0  0  0  0  0  0  0  0  0  0
  132.4998  122.7239  134.1935 H   0  0  0  0  0  0  0  0  0  0  0  0
  130.7945  123.2884  134.1935 H   0  0  0  0  0  0  0  0  0  0  0  0
  132.2980  120.7630  132.8128 H   0  0  0  0  0  0  0  0  0  0  0  0
  131.8110  117.3140  132.9520 H   0  0  0  0  0  0  0  0  0  0  0  0
  133.4904  118.2079  129.5081 H   0  0  0  0  0  0  0  0  0  0  0  0
  134.4414  116.3161  128.2011 H   0  0  0  0  0  0  0  0  0  0  0  0
  133.6140  113.8870  127.2170 H   0  0  0  0  0  0  0  0  0  0  0  0
  136.3172  114.6509  129.1576 H   0  0  0  0  0  0  0  0  0  0  0  0
  134.9971  114.6719  130.3820 H   0  0  0  0  0  0  0  0  0  0  0  0
  137.4237  113.9880  131.1159 H   0  0  0  0  0  0  0  0  0  0  0  0
  136.0254  113.0371  131.7087 H   0  0  0  0  0  0  0  0  0  0  0  0
  136.9160  111.4000  130.7690 H   0  0  0  0  0  0  0  0  0  0  0  0
  131.5094  113.6575  129.9102 H   0  0  0  0  0  0  0  0  0  0  0  0
  128.4881  116.5951  131.5486 H   0  0  0  0  0  0  0  0  0  0  0  0
  129.0942  116.2330  129.8703 H   0  0  0  0  0  0  0  0  0  0  0  0
  127.0004  115.0019  130.4647 H   0  0  0  0  0  0  0  0  0  0  0  0
  128.4046  113.9366  130.0521 H   0  0  0  0  0  0  0  0  0  0  0  0
  129.0838  114.6568  133.7224 H   0  0  0  0  0  0  0  0  0  0  0  0
  129.2179  112.8836  133.3900 H   0  0  0  0  0  0  0  0  0  0  0  0
  131.2677  114.0846  132.6910 H   0  0  0  0  0  0  0  0  0  0  0  0
  130.4098  113.3623  131.2825 H   0  0  0  0  0  0  0  0  0  0  0  0
  126.3492  112.4415  131.2903 H   0  0  0  0  0  0  0  0  0  0  0  0
  126.9827  111.7089  132.5090 H   0  0  0  0  0  0  0  0  0  0  0  0
  125.7323  114.6714  132.4686 H   0  0  0  0  0  0  0  0  0  0  0  0
  126.2581  114.3281  133.8930 H   0  0  0  0  0  0  0  0  0  0  0  0
  127.2213  117.6069  136.4630 H   0  0  0  0  0  0  0  0  0  0  0  0
  128.0763  117.5580  134.8805 H   0  0  0  0  0  0  0  0  0  0  0  0
  128.6603  115.6404  136.4179 H   0  0  0  0  0  0  0  0  0  0  0  0
  130.0727  116.6347  135.9225 H   0  0  0  0  0  0  0  0  0  0  0  0
  130.0430  118.4786  139.3098 H   0  0  0  0  0  0  0  0  0  0  0  0
  130.9503  118.4399  137.7603 H   0  0  0  0  0  0  0  0  0  0  0  0
  128.0380  119.2839  138.1797 H   0  0  0  0  0  0  0  0  0  0  0  0
  129.4229  120.3361  137.7172 H   0  0  0  0  0  0  0  0  0  0  0  0
  1  2  1  0
  2  3  2  0
  3  4  1  0
  4  5  1  0
  5  6  1  0
  6  7  2  0
  6  8  1  0
  8  9  2  0
  9 10  1  0
 10 11  2  0
 11 12  1  0
 12 13  1  0
 13 14  2  0
 13 15  2  0
 13 16  1  0
 16 17  1  0
 17 18  1  0
 11 19  1  0
 19 20  2  0
 20 21  1  0
 21 22  1  0
 22 23  1  0
 23 24  1  0
 24 25  1  0
 25 26  1  0
 24 27  1  0
 27 28  1  0
  4 29  2  0
 29 30  1  0
 30 31  1  0
 31 32  1  0
 32 33  1  0
 33 34  1  0
 34 35  1  0
 34 36  1  0
 34 37  1  0
 37 38  1  0
 30 39  2  0
 39  2  1  0
 20  8  1  0
 26 21  1  0
 38 31  1  0
 28 24  1  0
  1 40  1  0
  1 41  1  0
  1 42  1  0
  3 43  1  0
  5 44  1  0
  9 45  1  0
 10 46  1  0
 12 47  1  0
 16 48  1  0
 16 49  1  0
 17 50  1  0
 17 51  1  0
 18 52  1  0
 19 53  1  0
 22 54  1  0
 22 55  1  0
 23 56  1  0
 23 57  1  0
 25 58  1  0
 25 59  1  0
 26 60  1  0
 26 61  1  0
 27 62  1  0
 27 63  1  0
 28 64  1  0
 28 65  1  0
 32 66  1  0
 32 67  1  0
 33 68  1  0
 33 69  1  0
 37 70  1  0
 37 71  1  0
 38 72  1  0
 38 73  1  0
M  END
$$$$

     RDKit          3D

 73 77  0  0  0  0  0  0  0  0999 V2000
  128.6470  121.7170  134.5230 C   0  0  0  0  0  0  0  0  0  0  0  0
  129.1000  120.2910  134.6070 C   0  0  0  0  0  0  0  0  0  0  0  0
  129.7410  119.7040  133.5420 C   0  0  0  0  0  0  0  0  0  0  0  0
  130.1180  118.3970  133.7180 C   0  0  0  0  0  0  0  0  0  0  0  0
  130.7730  117.6410  132.7490 N   0  0  0  0  0  0  0  0  0  0  0  0
  130.2760  117.0380  131.6240 C   0  0  0  0  0  0  0  0  0  0  0  0
  129.1000  117.0600  131.2750 O   0  0  0  0  0  0  0  0  0  0  0  0
  131.2810  116.2910  130.7820 C   0  0  0  0  0  0  0  0  0  0  0  0
  132.3780  117.0380  130.3160 C   0  0  0  0  0  0  0  0  0  0  0  0
  133.3620  116.4550  129.5140 C   0  0  0  0  0  0  0  0  0  0  0  0
  133.2660  115.1130  129.1680 C   0  0  0  0  0  0  0  0  0  0  0  0
  134.2440  114.4920  128.3410 N   0  0  0  0  0  0  0  0  0  0  0  0
  134.5680  112.8470  128.5190 S   0  0  0  0  0  6  0  0  0  0  0  0
  135.6220  112.5590  127.5680 O   0  0  0  0  0  0  0  0  0  0  0  0
  133.3300  112.1010  128.5110 O   0  0  0  0  0  0  0  0  0  0  0  0
  135.2790  112.7700  130.1510 C   0  0  0  0  0  0  0  0  0  0  0  0
  136.7800  112.6050  130.0570 C   0  0  0  0  0  0  0  0  0  0  0  0
  137.0750  111.2460  129.7410 O   0  0  0  0  0  0  0  0  0  0  0  0
  132.1900  114.3520  129.6300 C   0  0  0  0  0  0  0  0  0  0  0  0
  131.1780  114.9180  130.4350 C   0  0  0  0  0  0  0  0  0  0  0  0
  130.1080  114.1140  130.8970 N   0  0  0  0  0  0  0  0  0  0  0  0
  130.0480  113.9270  132.3710 C   0  0  0  0  0  0  0  0  0  0  0  0
  128.7460  114.4520  132.9810 C   0  0  0  0  0  0  0  0  0  0  0  0
  127.5330  113.8400  132.3050 C   0  0  0  0  0  0  0  0  0  0  0  0
  127.6920  113.6090  130.8110 C   0  0  0  0  0  0  0  0  0  0  0  0
  128.8250  114.4620  130.2360 C   0  0  0  0  0  0  0  0  0  0  0  0
  126.1660  114.2200  132.8380 C   0  0  0  0  0  0  0  0  0  0  0  0
  126.6980  112.8390  133.0800 C   0  0  0  0  0  0  0  0  0  0  0  0
  129.8810  117.7210  134.8570 N   0  0  0  0  0  0  0  0  0  0  0  0
  129.2550  118.3550  135.8560 C   0  0  0  0  0  0  0  0  0  0  0  0
  129.0090  117.6620  137.0400 N   0  0  0  0  0  0  0  0  0  0  0  0
  127.7730  117.9940  137.7490 C   0  0  0  0  0  0  0  0  0  0  0  0
  126.6060  117.2290  137.1420 C   0  0  0  0  0  0  0  0  0  0  0  0
  126.9340  115.7480  137.1030 C   0  0  0  0  0  0  0  0  0  0  0  0
  125.9310  115.0810  136.4750 F   0  0  0  0  0  0  0  0  0  0  0  0
  126.9600  115.2650  138.3770 F   0  0  0  0  0  0  0  0  0  0  0  0
  128.2520  115.4220  136.4260 C   0  0  0  0  0  0  0  0  0  0  0  0
  129.3650  116.2440  137.0590 C   0  0  0  0  0  0  0  0  0  0  0  0
  128.8520  119.6290  135.7560 N   0  0  0  0  0  0  0  0  0  0  0  0
  128.5186  122.1213  135.5379 H   0  0  0  0  0  0  0  0  0  0  0  0
  129.4010  122.3101  133.9847 H   0  0  0  0  0  0  0  0  0  0  0  0
  127.6890  121.7663  133.9847 H   0  0  0  0  0  0  0  0  0  0  0  0
  129.9392  120.2485  132.6070 H   0  0  0  0  0  0  0  0  0  0  0  0
  131.7740  117.5560  132.9070 H   0  0  0  0  0  0  0  0  0  0  0  0
  132.4626  118.1005  130.5880 H   0  0  0  0  0  0  0  0  0  0  0  0
  134.2107  117.0570  129.1573 H   0  0  0  0  0  0  0  0  0  0  0  0
  135.0790  115.0280  128.1110 H   0  0  0  0  0  0  0  0  0  0  0  0
  135.0484  113.6993  130.6925 H   0  0  0  0  0  0  0  0  0  0  0  0
  134.8551  111.9087  130.6881 H   0  0  0  0  0  0  0  0  0  0  0  0
  137.1753  113.2620  129.2683 H   0  0  0  0  0  0  0  0  0  0  0  0
  137.2460  112.8749  131.0162 H   0  0  0  0  0  0  0  0  0  0  0  0
  137.5820  110.8830  130.4900 H   0  0  0  0  0  0  0  0  0  0  0  0
  132.1297  113.2872  129.3604 H   0  0  0  0  0  0  0  0  0  0  0  0
  130.1326  112.8530  132.5931 H   0  0  0  0  0  0  0  0  0  0  0  0
  130.8764  114.5004  132.8125 H   0  0  0  0  0  0  0  0  0  0  0  0
  128.7248  114.1997  134.0515 H   0  0  0  0  0  0  0  0  0  0  0  0
  128.7103  115.5419  132.8367 H   0  0  0  0  0  0  0  0  0  0  0  0
  127.9174  112.5469  130.6343 H   0  0  0  0  0  0  0  0  0  0  0  0
  126.7539  113.8948  130.3128 H   0  0  0  0  0  0  0  0  0  0  0  0
  128.9095  114.2749  129.1553 H   0  0  0  0  0  0  0  0  0  0  0  0
  128.6034  115.5246  130.4144 H   0  0  0  0  0  0  0  0  0  0  0  0
  126.0807  114.9297  133.6741 H   0  0  0  0  0  0  0  0  0  0  0  0
  125.2471  114.6303  132.3939 H   0  0  0  0  0  0  0  0  0  0  0  0
  127.0024  112.5376  134.0931 H   0  0  0  0  0  0  0  0  0  0  0  0
  126.3298  111.8207  132.8863 H   0  0  0  0  0  0  0  0  0  0  0  0
  127.8762  117.7206  138.8095 H   0  0  0  0  0  0  0  0  0  0  0  0
  127.5835  119.0739  137.6600 H   0  0  0  0  0  0  0  0  0  0  0  0
  125.7058  117.3887  137.7536 H   0  0  0  0  0  0  0  0  0  0  0  0
  126.4247  117.5903  136.1190 H   0  0  0  0  0  0  0  0  0  0  0  0
  128.4720  114.3512  136.5485 H   0  0  0  0  0  0  0  0  0  0  0  0
  128.1829  115.6622  135.3548 H   0  0  0  0  0  0  0  0  0  0  0  0
  129.5120  115.9188  138.0995 H   0  0  0  0  0  0  0  0  0  0  0  0
  130.2938  116.0961  136.4884 H   0  0  0  0  0  0  0  0  0  0  0  0
  1  2  1  0
  2  3  2  0
  3  4  1  0
  4  5  1  0
  5  6  1  0
  6  7  2  0
  6  8  1  0
  8  9  2  0
  9 10  1  0
 10 11  2  0
 11 12  1  0
 12 13  1  0
 13 14  2  0
 13 15  2  0
 13 16  1  0
 16 17  1  0
 17 18  1  0
 11 19  1  0
 19 20  2  0
 20 21  1  0
 21 22  1  0
 22 23  1  0
 23 24  1  0
 24 25  1  0
 25 26  1  0
 24 27  1  0
 27 28  1  0
  4 29  2  0
 29 30  1  0
 30 31  1  0
 31 32  1  0
 32 33  1  0
 33 34  1  0
 34 35  1  0
 34 36  1  0
 34 37  1  0
 37 38  1  0
 30 39  2  0
 39  2  1  0
 20  8  1  0
 26 21  1  0
 38 31  1  0
 28 24  1  0
  1 40  1  0
  1 41  1  0
  1 42  1  0
  3 43  1  0
  5 44  1  0
  9 45  1  0
 10 46  1  0
 12 47  1  0
 16 48  1  0
 16 49  1  0
 17 50  1  0
 17 51  1  0
 18 52  1  0
 19 53  1  0
 22 54  1  0
 22 55  1  0
 23 56  1  0
 23 57  1  0
 25 58  1  0
 25 59  1  0
 26 60  1  0
 26 61  1  0
 27 62  1  0
 27 63  1  0
 28 64  1  0
 28 65  1  0
 32 66  1  0
 32 67  1  0
 33 68  1  0
 33 69  1  0
 37 70  1  0
 37 71  1  0
 38 72  1  0
 38 73  1  0
M  END
$$$$

     RDKit          3D

 73 77  0  0  0  0  0  0  0  0999 V2000
  129.0840  122.0690  134.4240 C   0  0  0  0  0  0  0  0  0  0  0  0
  129.2120  120.5760  134.3760 C   0  0  0  0  0  0  0  0  0  0  0  0
  129.8970  119.9730  133.3480 C   0  0  0  0  0  0  0  0  0  0  0  0
  129.9590  118.6030  133.3950 C   0  0  0  0  0  0  0  0  0  0  0  0
  130.6050  117.8230  132.4400 N   0  0  0  0  0  0  0  0  0  0  0  0
  131.3910  118.2030  131.3840 C   0  0  0  0  0  0  0  0  0  0  0  0
  131.6580  119.3630  131.0870 O   0  0  0  0  0  0  0  0  0  0  0  0
  131.9430  117.0810  130.5400 C   0  0  0  0  0  0  0  0  0  0  0  0
  133.0540  117.3960  129.7360 C   0  0  0  0  0  0  0  0  0  0  0  0
  133.6380  116.4410  128.9020 C   0  0  0  0  0  0  0  0  0  0  0  0
  133.1210  115.1520  128.8580 C   0  0  0  0  0  0  0  0  0  0  0  0
  133.6830  114.1590  128.0080 N   0  0  0  0  0  0  0  0  0  0  0  0
  134.6650  112.9550  128.6610 S   0  0  0  0  0  6  0  0  0  0  0  0
  135.5040  112.5100  127.5680 O   0  0  0  0  0  0  0  0  0  0  0  0
  133.8580  112.0210  129.4130 O   0  0  0  0  0  0  0  0  0  0  0  0
  135.6930  113.8700  129.7930 C   0  0  0  0  0  0  0  0  0  0  0  0
  136.3680  112.9250  130.7620 C   0  0  0  0  0  0  0  0  0  0  0  0
  136.9990  111.8810  130.0250 O   0  0  0  0  0  0  0  0  0  0  0  0
  132.0250  114.8170  129.6560 C   0  0  0  0  0  0  0  0  0  0  0  0
  131.4120  115.7640  130.5030 C   0  0  0  0  0  0  0  0  0  0  0  0
  130.3100  115.3860  131.3090 N   0  0  0  0  0  0  0  0  0  0  0  0
  128.9760  115.7740  130.7800 C   0  0  0  0  0  0  0  0  0  0  0  0
  128.0670  114.5670  130.5270 C   0  0  0  0  0  0  0  0  0  0  0  0
  127.9310  113.7080  131.7710 C   0  0  0  0  0  0  0  0  0  0  0  0
  129.1940  113.6080  132.6110 C   0  0  0  0  0  0  0  0  0  0  0  0
  130.4330  113.9890  131.7970 C   0  0  0  0  0  0  0  0  0  0  0  0
  127.0140  112.5040  131.6940 C   0  0  0  0  0  0  0  0  0  0  0  0
  126.6030  113.6970  132.5030 C   0  0  0  0  0  0  0  0  0  0  0  0
  129.3890  117.8840  134.3800 N   0  0  0  0  0  0  0  0  0  0  0  0
  128.7400  118.5380  135.3520 C   0  0  0  0  0  0  0  0  0  0  0  0
  128.1510  117.8000  136.3770 N   0  0  0  0  0  0  0  0  0  0  0  0
  128.8970  116.6390  136.8620 C   0  0  0  0  0  0  0  0  0  0  0  0
  129.9410  117.0830  137.8780 C   0  0  0  0  0  0  0  0  0  0  0  0
  129.2740  117.9060  138.9640 C   0  0  0  0  0  0  0  0  0  0  0  0
  130.2210  118.3790  139.8160 F   0  0  0  0  0  0  0  0  0  0  0  0
  128.4760  117.0930  139.7110 F   0  0  0  0  0  0  0  0  0  0  0  0
  128.4460  119.0660  138.4450 C   0  0  0  0  0  0  0  0  0  0  0  0
  127.4500  118.5560  137.4130 C   0  0  0  0  0  0  0  0  0  0  0  0
  128.6330  119.8730  135.3700 N   0  0  0  0  0  0  0  0  0  0  0  0
  129.0555  122.4011  135.4723 H   0  0  0  0  0  0  0  0  0  0  0  0
  129.9461  122.5274  133.9175 H   0  0  0  0  0  0  0  0  0  0  0  0
  128.1564  122.3740  133.9175 H   0  0  0  0  0  0  0  0  0  0  0  0
  130.3658  120.5521  132.5388 H   0  0  0  0  0  0  0  0  0  0  0  0
  130.4820  116.8230  132.5790 H   0  0  0  0  0  0  0  0  0  0  0  0
  133.4701  118.4138  129.7652 H   0  0  0  0  0  0  0  0  0  0  0  0
  134.5057  116.7083  128.2809 H   0  0  0  0  0  0  0  0  0  0  0  0
  133.9910  114.4490  127.0800 H   0  0  0  0  0  0  0  0  0  0  0  0
  136.4596  114.4186  129.2261 H   0  0  0  0  0  0  0  0  0  0  0  0
  135.0668  114.5771  130.3568 H   0  0  0  0  0  0  0  0  0  0  0  0
  137.1222  113.4722  131.3466 H   0  0  0  0  0  0  0  0  0  0  0  0
  135.6212  112.4983  131.4477 H   0  0  0  0  0  0  0  0  0  0  0  0
  137.2870  111.2100  130.6690 H   0  0  0  0  0  0  0  0  0  0  0  0
  131.6305  113.7907  129.6233 H   0  0  0  0  0  0  0  0  0  0  0  0
  128.4870  116.4362  131.5097 H   0  0  0  0  0  0  0  0  0  0  0  0
  129.1347  116.2787  129.8156 H   0  0  0  0  0  0  0  0  0  0  0  0
  127.0708  114.9252  130.2283 H   0  0  0  0  0  0  0  0  0  0  0  0
  128.5159  113.9555  129.7304 H   0  0  0  0  0  0  0  0  0  0  0  0
  129.1072  114.2878  133.4714 H   0  0  0  0  0  0  0  0  0  0  0  0
  129.3059  112.5670  132.9483 H   0  0  0  0  0  0  0  0  0  0  0  0
  131.3269  113.9023  132.4321 H   0  0  0  0  0  0  0  0  0  0  0  0
  130.5210  113.3117  130.9347 H   0  0  0  0  0  0  0  0  0  0  0  0
  126.4913  112.2714  130.7545 H   0  0  0  0  0  0  0  0  0  0  0  0
  127.1265  111.4292  131.8994 H   0  0  0  0  0  0  0  0  0  0  0  0
  125.7795  114.3384  132.1560 H   0  0  0  0  0  0  0  0  0  0  0  0
  126.2903  113.8572  133.5454 H   0  0  0  0  0  0  0  0  0  0  0  0
  128.2021  115.9315  137.3381 H   0  0  0  0  0  0  0  0  0  0  0  0
  129.4003  116.1512  136.0142 H   0  0  0  0  0  0  0  0  0  0  0  0
  130.4143  116.1977  138.3277 H   0  0  0  0  0  0  0  0  0  0  0  0
  130.7058  117.6926  137.3744 H   0  0  0  0  0  0  0  0  0  0  0  0
  127.9025  119.5315  139.2805 H   0  0  0  0  0  0  0  0  0  0  0  0
  129.1086  119.8102  137.9790 H   0  0  0  0  0  0  0  0  0  0  0  0
  126.7151  117.9032  137.9067 H   0  0  0  0  0  0  0  0  0  0  0  0
  126.9359  119.4121  136.9516 H   0  0  0  0  0  0  0  0  0  0  0  0
  1  2  1  0
  2  3  2  0
  3  4  1  0
  4  5  1  0
  5  6  1  0
  6  7  2  0
  6  8  1  0
  8  9  2  0
  9 10  1  0
 10 11  2  0
 11 12  1  0
 12 13  1  0
 13 14  2  0
 13 15  2  0
 13 16  1  0
 16 17  1  0
 17 18  1  0
 11 19  1  0
 19 20  2  0
 20 21  1  0
 21 22  1  0
 22 23  1  0
 23 24  1  0
 24 25  1  0
 25 26  1  0
 24 27  1  0
 27 28  1  0
  4 29  2  0
 29 30  1  0
 30 31  1  0
 31 32  1  0
 32 33  1  0
 33 34  1  0
 34 35  1  0
 34 36  1  0
 34 37  1  0
 37 38  1  0
 30 39  2  0
 39  2  1  0
 20  8  1  0
 26 21  1  0
 38 31  1  0
 28 24  1  0
  1 40  1  0
  1 41  1  0
  1 42  1  0
  3 43  1  0
  5 44  1  0
  9 45  1  0
 10 46  1  0
 12 47  1  0
 16 48  1  0
 16 49  1  0
 17 50  1  0
 17 51  1  0
 18 52  1  0
 19 53  1  0
 22 54  1  0
 22 55  1  0
 23 56  1  0
 23 57  1  0
 25 58  1  0
 25 59  1  0
 26 60  1  0
 26 61  1  0
 27 62  1  0
 27 63  1  0
 28 64  1  0
 28 65  1  0
 32 66  1  0
 32 67  1  0
 33 68  1  0
 33 69  1  0
 37 70  1  0
 37 71  1  0
 38 72  1  0
 38 73  1  0
M  END
$$$$

     RDKit          3D

 73 77  0  0  0  0  0  0  0  0999 V2000
  129.0690  122.4520  134.2580 C   0  0  0  0  0  0  0  0  0  0  0  0
  129.2740  120.9780  134.4310 C   0  0  0  0  0  0  0  0  0  0  0  0
  129.8550  120.2380  133.4290 C   0  0  0  0  0  0  0  0  0  0  0  0
  130.0000  118.8980  133.6830 C   0  0  0  0  0  0  0  0  0  0  0  0
  130.5640  117.9950  132.7850 N   0  0  0  0  0  0  0  0  0  0  0  0
  131.0130  118.1950  131.5060 C   0  0  0  0  0  0  0  0  0  0  0  0
  130.9790  119.2660  130.9080 O   0  0  0  0  0  0  0  0  0  0  0  0
  131.5750  116.9800  130.8110 C   0  0  0  0  0  0  0  0  0  0  0  0
  132.7210  117.1910  130.0210 C   0  0  0  0  0  0  0  0  0  0  0  0
  133.3180  116.1420  129.3180 C   0  0  0  0  0  0  0  0  0  0  0  0
  132.7810  114.8640  129.3960 C   0  0  0  0  0  0  0  0  0  0  0  0
  133.3570  113.7760  128.6810 N   0  0  0  0  0  0  0  0  0  0  0  0
  135.0150  113.4920  128.7800 S   0  0  0  0  0  6  0  0  0  0  0  0
  135.5930  114.7440  129.2250 O   0  0  0  0  0  0  0  0  0  0  0  0
  135.4730  112.8450  127.5720 O   0  0  0  0  0  0  0  0  0  0  0  0
  135.1270  112.3360  130.1320 C   0  0  0  0  0  0  0  0  0  0  0  0
  136.4460  111.5980  130.0770 C   0  0  0  0  0  0  0  0  0  0  0  0
  137.5010  112.5480  129.9460 O   0  0  0  0  0  0  0  0  0  0  0  0
  131.6510  114.6320  130.1830 C   0  0  0  0  0  0  0  0  0  0  0  0
  131.0230  115.6740  130.8970 C   0  0  0  0  0  0  0  0  0  0  0  0
  129.8870  115.4010  131.6970 N   0  0  0  0  0  0  0  0  0  0  0  0
  128.5760  115.6470  131.0400 C   0  0  0  0  0  0  0  0  0  0  0  0
  127.7140  114.3850  130.9500 C   0  0  0  0  0  0  0  0  0  0  0  0
  127.5270  113.7460  132.3140 C   0  0  0  0  0  0  0  0  0  0  0  0
  128.7420  113.8330  133.2240 C   0  0  0  0  0  0  0  0  0  0  0  0
  130.0160  114.1120  132.4230 C   0  0  0  0  0  0  0  0  0  0  0  0
  126.6460  112.5150  132.3970 C   0  0  0  0  0  0  0  0  0  0  0  0
  126.1600  113.8140  132.9660 C   0  0  0  0  0  0  0  0  0  0  0  0
  129.6020  118.3310  134.8360 N   0  0  0  0  0  0  0  0  0  0  0  0
  129.0450  119.1120  135.7710 C   0  0  0  0  0  0  0  0  0  0  0  0
  128.6330  118.5320  136.9690 N   0  0  0  0  0  0  0  0  0  0  0  0
  127.3290  117.8690  136.9620 C   0  0  0  0  0  0  0  0  0  0  0  0
  127.4690  116.4570  136.4100 C   0  0  0  0  0  0  0  0  0  0  0  0
  128.5510  115.7180  137.1750 C   0  0  0  0  0  0  0  0  0  0  0  0
  128.7390  114.4930  136.6180 F   0  0  0  0  0  0  0  0  0  0  0  0
  128.1170  115.4860  138.4450 F   0  0  0  0  0  0  0  0  0  0  0  0
  129.8790  116.4470  137.2340 C   0  0  0  0  0  0  0  0  0  0  0  0
  129.6600  117.8580  137.7620 C   0  0  0  0  0  0  0  0  0  0  0  0
  128.8660  120.4280  135.5920 N   0  0  0  0  0  0  0  0  0  0  0  0
  129.0023  122.9314  135.2458 H   0  0  0  0  0  0  0  0  0  0  0  0
  129.9167  122.8772  133.7006 H   0  0  0  0  0  0  0  0  0  0  0  0
  128.1375  122.6297  133.7006 H   0  0  0  0  0  0  0  0  0  0  0  0
  130.1832  120.6921  132.4824 H   0  0  0  0  0  0  0  0  0  0  0  0
  130.6700  117.0570  133.1630 H   0  0  0  0  0  0  0  0  0  0  0  0
  133.1540  118.2001  129.9562 H   0  0  0  0  0  0  0  0  0  0  0  0
  134.2115  116.3280  128.7040 H   0  0  0  0  0  0  0  0  0  0  0  0
  132.9830  113.5670  127.7550 H   0  0  0  0  0  0  0  0  0  0  0  0
  135.0550  112.8818  131.0843 H   0  0  0  0  0  0  0  0  0  0  0  0
  134.3046  111.6097  130.0537 H   0  0  0  0  0  0  0  0  0  0  0  0
  136.5837  111.0183  131.0016 H   0  0  0  0  0  0  0  0  0  0  0  0
  136.4536  110.9114  129.2176 H   0  0  0  0  0  0  0  0  0  0  0  0
  137.5730  112.7650  129.0000 H   0  0  0  0  0  0  0  0  0  0  0  0
  131.2412  113.6133  130.2476 H   0  0  0  0  0  0  0  0  0  0  0  0
  128.0293  116.4060  131.6188 H   0  0  0  0  0  0  0  0  0  0  0  0
  128.7775  115.9856  130.0130 H   0  0  0  0  0  0  0  0  0  0  0  0
  126.7283  114.6528  130.5417 H   0  0  0  0  0  0  0  0  0  0  0  0
  128.2235  113.6627  130.2953 H   0  0  0  0  0  0  0  0  0  0  0  0
  128.5893  114.6457  133.9494 H   0  0  0  0  0  0  0  0  0  0  0  0
  128.8598  112.8688  133.7401 H   0  0  0  0  0  0  0  0  0  0  0  0
  130.8738  114.1648  133.1096 H   0  0  0  0  0  0  0  0  0  0  0  0
  130.1701  113.3015  131.6955 H   0  0  0  0  0  0  0  0  0  0  0  0
  126.1842  112.1080  131.4854 H   0  0  0  0  0  0  0  0  0  0  0  0
  126.7730  111.4954  132.7897 H   0  0  0  0  0  0  0  0  0  0  0  0
  125.3422  114.3584  132.4711 H   0  0  0  0  0  0  0  0  0  0  0  0
  125.7841  114.1386  133.9475 H   0  0  0  0  0  0  0  0  0  0  0  0
  126.9381  117.8221  137.9891 H   0  0  0  0  0  0  0  0  0  0  0  0
  126.6359  118.4395  136.3263 H   0  0  0  0  0  0  0  0  0  0  0  0
  126.5131  115.9240  136.5205 H   0  0  0  0  0  0  0  0  0  0  0  0
  127.7417  116.5056  135.3455 H   0  0  0  0  0  0  0  0  0  0  0  0
  130.5643  115.9070  137.9039 H   0  0  0  0  0  0  0  0  0  0  0  0
  130.3154  116.4964  136.2255 H   0  0  0  0  0  0  0  0  0  0  0  0
  129.3360  117.8084  138.8120 H   0  0  0  0  0  0  0  0  0  0  0  0
  130.6016  118.4220  137.6898 H   0  0  0  0  0  0  0  0  0  0  0  0
  1  2  1  0
  2  3  2  0
  3  4  1  0
  4  5  1  0
  5  6  1  0
  6  7  2  0
  6  8  1  0
  8  9  2  0
  9 10  1  0
 10 11  2  0
 11 12  1  0
 12 13  1  0
 13 14  2  0
 13 15  2  0
 13 16  1  0
 16 17  1  0
 17 18  1  0
 11 19  1  0
 19 20  2  0
 20 21  1  0
 21 22  1  0
 22 23  1  0
 23 24  1  0
 24 25  1  0
 25 26  1  0
 24 27  1  0
 27 28  1  0
  4 29  2  0
 29 30  1  0
 30 31  1  0
 31 32  1  0
 32 33  1  0
 33 34  1  0
 34 35  1  0
 34 36  1  0
 34 37  1  0
 37 38  1  0
 30 39  2  0
 39  2  1  0
 20  8  1  0
 26 21  1  0
 38 31  1  0
 28 24  1  0
  1 40  1  0
  1 41  1  0
  1 42  1  0
  3 43  1  0
  5 44  1  0
  9 45  1  0
 10 46  1  0
 12 47  1  0
 16 48  1  0
 16 49  1  0
 17 50  1  0
 17 51  1  0
 18 52  1  0
 19 53  1  0
 22 54  1  0
 22 55  1  0
 23 56  1  0
 23 57  1  0
 25 58  1  0
 25 59  1  0
 26 60  1  0
 26 61  1  0
 27 62  1  0
 27 63  1  0
 28 64  1  0
 28 65  1  0
 32 66  1  0
 32 67  1  0
 33 68  1  0
 33 69  1  0
 37 70  1  0
 37 71  1  0
 38 72  1  0
 38 73  1  0
M  END
$$$$

     RDKit          3D

 73 77  0  0  0  0  0  0  0  0999 V2000
  128.9970  122.5640  134.2390 C   0  0  0  0  0  0  0  0  0  0  0  0
  129.1860  121.0780  134.3060 C   0  0  0  0  0  0  0  0  0  0  0  0
  129.9420  120.4330  133.3560 C   0  0  0  0  0  0  0  0  0  0  0  0
  130.0560  119.0750  133.5060 C   0  0  0  0  0  0  0  0  0  0  0  0
  130.7770  118.2570  132.6390 N   0  0  0  0  0  0  0  0  0  0  0  0
  131.1580  118.4750  131.3410 C   0  0  0  0  0  0  0  0  0  0  0  0
  130.8980  119.4840  130.6920 O   0  0  0  0  0  0  0  0  0  0  0  0
  131.9440  117.3630  130.6920 C   0  0  0  0  0  0  0  0  0  0  0  0
  133.0970  117.7490  129.9840 C   0  0  0  0  0  0  0  0  0  0  0  0
  133.8940  116.8070  129.3300 C   0  0  0  0  0  0  0  0  0  0  0  0
  133.5510  115.4620  129.3750 C   0  0  0  0  0  0  0  0  0  0  0  0
  134.3330  114.4780  128.7070 N   0  0  0  0  0  0  0  0  0  0  0  0
  133.5980  113.0740  128.1300 S   0  0  0  0  0  6  0  0  0  0  0  0
  133.4440  112.2180  129.2880 O   0  0  0  0  0  0  0  0  0  0  0  0
  134.2870  112.6130  126.9460 O   0  0  0  0  0  0  0  0  0  0  0  0
  131.9770  113.6510  127.6660 C   0  0  0  0  0  0  0  0  0  0  0  0
  131.0630  112.4750  127.4030 C   0  0  0  0  0  0  0  0  0  0  0  0
  131.8170  111.4330  126.7890 O   0  0  0  0  0  0  0  0  0  0  0  0
  132.4160  115.0570  130.0810 C   0  0  0  0  0  0  0  0  0  0  0  0
  131.5900  115.9890  130.7450 C   0  0  0  0  0  0  0  0  0  0  0  0
  130.4550  115.5430  131.4640 N   0  0  0  0  0  0  0  0  0  0  0  0
  129.1450  115.9870  130.9180 C   0  0  0  0  0  0  0  0  0  0  0  0
  128.2460  114.8150  130.5140 C   0  0  0  0  0  0  0  0  0  0  0  0
  128.0540  113.8430  131.6630 C   0  0  0  0  0  0  0  0  0  0  0  0
  129.2800  113.6560  132.5430 C   0  0  0  0  0  0  0  0  0  0  0  0
  130.5530  114.1040  131.8220 C   0  0  0  0  0  0  0  0  0  0  0  0
  127.1390  112.6570  131.4330 C   0  0  0  0  0  0  0  0  0  0  0  0
  126.6960  113.7700  132.3340 C   0  0  0  0  0  0  0  0  0  0  0  0
  129.4700  118.4040  134.5140 N   0  0  0  0  0  0  0  0  0  0  0  0
  128.7510  119.0960  135.4060 C   0  0  0  0  0  0  0  0  0  0  0  0
  128.1440  118.4080  136.4550 N   0  0  0  0  0  0  0  0  0  0  0  0
  127.9040  116.9790  136.2510 C   0  0  0  0  0  0  0  0  0  0  0  0
  129.1690  116.1920  136.5620 C   0  0  0  0  0  0  0  0  0  0  0  0
  129.6670  116.5580  137.9470 C   0  0  0  0  0  0  0  0  0  0  0  0
  130.8470  115.9270  138.1830 F   0  0  0  0  0  0  0  0  0  0  0  0
  128.7950  116.0750  138.8750 F   0  0  0  0  0  0  0  0  0  0  0  0
  129.8460  118.0480  138.1700 C   0  0  0  0  0  0  0  0  0  0  0  0
  128.5580  118.7740  137.8090 C   0  0  0  0  0  0  0  0  0  0  0  0
  128.5900  120.4240  135.3230 N   0  0  0  0  0  0  0  0  0  0  0  0
  128.9449  122.9733  135.2587 H   0  0  0  0  0  0  0  0  0  0  0  0
  129.8447  123.0177  133.7046 H   0  0  0  0  0  0  0  0  0  0  0  0
  128.0627  122.7911  133.7046 H   0  0  0  0  0  0  0  0  0  0  0  0
  130.4249  120.9724  132.5279 H   0  0  0  0  0  0  0  0  0  0  0  0
  131.0770  117.3810  133.0600 H   0  0  0  0  0  0  0  0  0  0  0  0
  133.3758  118.8124  129.9449 H   0  0  0  0  0  0  0  0  0  0  0  0
  134.7909  117.1294  128.7808 H   0  0  0  0  0  0  0  0  0  0  0  0
  135.2760  114.3060  129.0540 H   0  0  0  0  0  0  0  0  0  0  0  0
  131.5604  114.2605  128.4815 H   0  0  0  0  0  0  0  0  0  0  0  0
  132.0582  114.2560  126.7509 H   0  0  0  0  0  0  0  0  0  0  0  0
  130.6414  112.1152  128.3532 H   0  0  0  0  0  0  0  0  0  0  0  0
  130.2419  112.7822  126.7387 H   0  0  0  0  0  0  0  0  0  0  0  0
  132.5920  111.2700  127.3560 H   0  0  0  0  0  0  0  0  0  0  0  0
  132.1602  113.9879  130.1204 H   0  0  0  0  0  0  0  0  0  0  0  0
  128.6265  116.5801  131.6857 H   0  0  0  0  0  0  0  0  0  0  0  0
  129.3455  116.5796  130.0132 H   0  0  0  0  0  0  0  0  0  0  0  0
  127.2644  115.2058  130.2080 H   0  0  0  0  0  0  0  0  0  0  0  0
  128.7286  114.2786  129.6837 H   0  0  0  0  0  0  0  0  0  0  0  0
  129.1581  114.2522  133.4593 H   0  0  0  0  0  0  0  0  0  0  0  0
  129.3749  112.5872  132.7850 H   0  0  0  0  0  0  0  0  0  0  0  0
  131.4189  113.9513  132.4830 H   0  0  0  0  0  0  0  0  0  0  0  0
  130.6754  113.5111  130.9036 H   0  0  0  0  0  0  0  0  0  0  0  0
  126.6563  112.5178  130.4544 H   0  0  0  0  0  0  0  0  0  0  0  0
  127.2408  111.5669  131.5396 H   0  0  0  0  0  0  0  0  0  0  0  0
  125.8890  114.4462  132.0153 H   0  0  0  0  0  0  0  0  0  0  0  0
  126.3396  113.8320  133.3728 H   0  0  0  0  0  0  0  0  0  0  0  0
  127.0944  116.6463  136.9172 H   0  0  0  0  0  0  0  0  0  0  0  0
  127.6179  116.8057  135.2031 H   0  0  0  0  0  0  0  0  0  0  0  0
  128.9488  115.1149  136.5247 H   0  0  0  0  0  0  0  0  0  0  0  0
  129.9429  116.4350  135.8190 H   0  0  0  0  0  0  0  0  0  0  0  0
  130.0878  118.2340  139.2269 H   0  0  0  0  0  0  0  0  0  0  0  0
  130.6651  118.4176  137.5356 H   0  0  0  0  0  0  0  0  0  0  0  0
  127.7683  118.4918  138.5208 H   0  0  0  0  0  0  0  0  0  0  0  0
  128.7288  119.8597  137.8549 H   0  0  0  0  0  0  0  0  0  0  0  0
  1  2  1  0
  2  3  2  0
  3  4  1  0
  4  5  1  0
  5  6  1  0
  6  7  2  0
  6  8  1  0
  8  9  2  0
  9 10  1  0
 10 11  2  0
 11 12  1  0
 12 13  1  0
 13 14  2  0
 13 15  2  0
 13 16  1  0
 16 17  1  0
 17 18  1  0
 11 19  1  0
 19 20  2  0
 20 21  1  0
 21 22  1  0
 22 23  1  0
 23 24  1  0
 24 25  1  0
 25 26  1  0
 24 27  1  0
 27 28  1  0
  4 29  2  0
 29 30  1  0
 30 31  1  0
 31 32  1  0
 32 33  1  0
 33 34  1  0
 34 35  1  0
 34 36  1  0
 34 37  1  0
 37 38  1  0
 30 39  2  0
 39  2  1  0
 20  8  1  0
 26 21  1  0
 38 31  1  0
 28 24  1  0
  1 40  1  0
  1 41  1  0
  1 42  1  0
  3 43  1  0
  5 44  1  0
  9 45  1  0
 10 46  1  0
 12 47  1  0
 16 48  1  0
 16 49  1  0
 17 50  1  0
 17 51  1  0
 18 52  1  0
 19 53  1  0
 22 54  1  0
 22 55  1  0
 23 56  1  0
 23 57  1  0
 25 58  1  0
 25 59  1  0
 26 60  1  0
 26 61  1  0
 27 62  1  0
 27 63  1  0
 28 64  1  0
 28 65  1  0
 32 66  1  0
 32 67  1  0
 33 68  1  0
 33 69  1  0
 37 70  1  0
 37 71  1  0
 38 72  1  0
 38 73  1  0
M  END
$$$$

     RDKit          3D

 73 77  0  0  0  0  0  0  0  0999 V2000
  128.6310  122.2980  134.3620 C   0  0  0  0  0  0  0  0  0  0  0  0
  129.1860  120.9190  134.5570 C   0  0  0  0  0  0  0  0  0  0  0  0
  129.8140  120.2730  133.5190 C   0  0  0  0  0  0  0  0  0  0  0  0
  130.2890  119.0160  133.7980 C   0  0  0  0  0  0  0  0  0  0  0  0
  130.9470  118.2130  132.8700 N   0  0  0  0  0  0  0  0  0  0  0  0
  131.1730  118.4200  131.5350 C   0  0  0  0  0  0  0  0  0  0  0  0
  130.7990  119.4030  130.9020 O   0  0  0  0  0  0  0  0  0  0  0  0
  131.9340  117.3300  130.8210 C   0  0  0  0  0  0  0  0  0  0  0  0
  133.0800  117.7340  130.1130 C   0  0  0  0  0  0  0  0  0  0  0  0
  133.8530  116.8130  129.4010 C   0  0  0  0  0  0  0  0  0  0  0  0
  133.4930  115.4720  129.3890 C   0  0  0  0  0  0  0  0  0  0  0  0
  134.2500  114.5100  128.6620 N   0  0  0  0  0  0  0  0  0  0  0  0
  133.5020  113.1110  128.0940 S   0  0  0  0  0  6  0  0  0  0  0  0
  133.3730  112.2480  129.2510 O   0  0  0  0  0  0  0  0  0  0  0  0
  134.1640  112.6560  126.8930 O   0  0  0  0  0  0  0  0  0  0  0  0
  131.8710  113.6910  127.6700 C   0  0  0  0  0  0  0  0  0  0  0  0
  130.9770  112.5210  127.3230 C   0  0  0  0  0  0  0  0  0  0  0  0
  131.7870  111.4410  126.8670 O   0  0  0  0  0  0  0  0  0  0  0  0
  132.3640  115.0490  130.0940 C   0  0  0  0  0  0  0  0  0  0  0  0
  131.5620  115.9590  130.8150 C   0  0  0  0  0  0  0  0  0  0  0  0
  130.4320  115.4950  131.5320 N   0  0  0  0  0  0  0  0  0  0  0  0
  129.1190  115.9610  131.0140 C   0  0  0  0  0  0  0  0  0  0  0  0
  128.2100  114.8070  130.5820 C   0  0  0  0  0  0  0  0  0  0  0  0
  128.0270  113.7990  131.7010 C   0  0  0  0  0  0  0  0  0  0  0  0
  129.2610  113.5790  132.5620 C   0  0  0  0  0  0  0  0  0  0  0  0
  130.5280  114.0450  131.8410 C   0  0  0  0  0  0  0  0  0  0  0  0
  127.1040  112.6250  131.4430 C   0  0  0  0  0  0  0  0  0  0  0  0
  126.6760  113.7100  132.3840 C   0  0  0  0  0  0  0  0  0  0  0  0
  130.1550  118.4420  135.0060 N   0  0  0  0  0  0  0  0  0  0  0  0
  129.5350  119.1300  135.9740 C   0  0  0  0  0  0  0  0  0  0  0  0
  129.3950  118.5420  137.2290 N   0  0  0  0  0  0  0  0  0  0  0  0
  128.0590  118.5790  137.8250 C   0  0  0  0  0  0  0  0  0  0  0  0
  127.2160  117.4360  137.2760 C   0  0  0  0  0  0  0  0  0  0  0  0
  127.9560  116.1250  137.4610 C   0  0  0  0  0  0  0  0  0  0  0  0
  127.2430  115.1220  136.8840 F   0  0  0  0  0  0  0  0  0  0  0  0
  128.0080  115.8280  138.7890 F   0  0  0  0  0  0  0  0  0  0  0  0
  129.3650  116.1220  136.9000 C   0  0  0  0  0  0  0  0  0  0  0  0
  130.1380  117.3060  137.4640 C   0  0  0  0  0  0  0  0  0  0  0  0
  129.0400  120.3590  135.7750 N   0  0  0  0  0  0  0  0  0  0  0  0
  128.4449  122.7604  135.3426 H   0  0  0  0  0  0  0  0  0  0  0  0
  129.3536  122.9080  133.8002 H   0  0  0  0  0  0  0  0  0  0  0  0
  127.6872  122.2374  133.8002 H   0  0  0  0  0  0  0  0  0  0  0  0
  129.9286  120.7345  132.5271 H   0  0  0  0  0  0  0  0  0  0  0  0
  131.3300  117.3600  133.2700 H   0  0  0  0  0  0  0  0  0  0  0  0
  133.3732  118.7942  130.1198 H   0  0  0  0  0  0  0  0  0  0  0  0
  134.7445  117.1495  128.8514 H   0  0  0  0  0  0  0  0  0  0  0  0
  135.2110  114.3430  128.9580 H   0  0  0  0  0  0  0  0  0  0  0  0
  131.4439  114.2338  128.5261 H   0  0  0  0  0  0  0  0  0  0  0  0
  131.9418  114.3604  126.8000 H   0  0  0  0  0  0  0  0  0  0  0  0
  130.4138  112.2093  128.2150 H   0  0  0  0  0  0  0  0  0  0  0  0
  130.2683  112.8143  126.5345 H   0  0  0  0  0  0  0  0  0  0  0  0
  132.3330  111.1560  127.6210 H   0  0  0  0  0  0  0  0  0  0  0  0
  132.0940  113.9827  130.0870 H   0  0  0  0  0  0  0  0  0  0  0  0
  128.6110  116.5316  131.8055 H   0  0  0  0  0  0  0  0  0  0  0  0
  129.3134  116.5806  130.1262 H   0  0  0  0  0  0  0  0  0  0  0  0
  127.2267  115.2118  130.3004 H   0  0  0  0  0  0  0  0  0  0  0  0
  128.6802  114.2961  129.7288 H   0  0  0  0  0  0  0  0  0  0  0  0
  129.1514  114.1463  133.4980 H   0  0  0  0  0  0  0  0  0  0  0  0
  129.3539  112.5028  132.7698 H   0  0  0  0  0  0  0  0  0  0  0  0
  131.4008  113.8670  132.4863 H   0  0  0  0  0  0  0  0  0  0  0  0
  130.6373  113.4820  130.9023 H   0  0  0  0  0  0  0  0  0  0  0  0
  126.6101  112.5196  130.4658 H   0  0  0  0  0  0  0  0  0  0  0  0
  127.2019  111.5316  131.5133 H   0  0  0  0  0  0  0  0  0  0  0  0
  125.8688  114.3996  132.0961 H   0  0  0  0  0  0  0  0  0  0  0  0
  126.3311  113.7399  133.4281 H   0  0  0  0  0  0  0  0  0  0  0  0
  128.1437  118.4782  138.9171 H   0  0  0  0  0  0  0  0  0  0  0  0
  127.5776  119.5364  137.5767 H   0  0  0  0  0  0  0  0  0  0  0  0
  126.2583  117.3953  137.8155 H   0  0  0  0  0  0  0  0  0  0  0  0
  127.0279  117.6019  136.2050 H   0  0  0  0  0  0  0  0  0  0  0  0
  129.8700  115.1864  137.1821 H   0  0  0  0  0  0  0  0  0  0  0  0
  129.3234  116.1999  135.8035 H   0  0  0  0  0  0  0  0  0  0  0  0
  130.2810  117.1664  138.5457 H   0  0  0  0  0  0  0  0  0  0  0  0
  131.1162  117.3709  136.9651 H   0  0  0  0  0  0  0  0  0  0  0  0
  1  2  1  0
  2  3  2  0
  3  4  1  0
  4  5  1  0
  5  6  1  0
  6  7  2  0
  6  8  1  0
  8  9  2  0
  9 10  1  0
 10 11  2  0
 11 12  1  0
 12 13  1  0
 13 14  2  0
 13 15  2  0
 13 16  1  0
 16 17  1  0
 17 18  1  0
 11 19  1  0
 19 20  2  0
 20 21  1  0
 21 22  1  0
 22 23  1  0
 23 24  1  0
 24 25  1  0
 25 26  1  0
 24 27  1  0
 27 28  1  0
  4 29  2  0
 29 30  1  0
 30 31  1  0
 31 32  1  0
 32 33  1  0
 33 34  1  0
 34 35  1  0
 34 36  1  0
 34 37  1  0
 37 38  1  0
 30 39  2  0
 39  2  1  0
 20  8  1  0
 26 21  1  0
 38 31  1  0
 28 24  1  0
  1 40  1  0
  1 41  1  0
  1 42  1  0
  3 43  1  0
  5 44  1  0
  9 45  1  0
 10 46  1  0
 12 47  1  0
 16 48  1  0
 16 49  1  0
 17 50  1  0
 17 51  1  0
 18 52  1  0
 19 53  1  0
 22 54  1  0
 22 55  1  0
 23 56  1  0
 23 57  1  0
 25 58  1  0
 25 59  1  0
 26 60  1  0
 26 61  1  0
 27 62  1  0
 27 63  1  0
 28 64  1  0
 28 65  1  0
 32 66  1  0
 32 67  1  0
 33 68  1  0
 33 69  1  0
 37 70  1  0
 37 71  1  0
 38 72  1  0
 38 73  1  0
M  END
$$$$

     RDKit          3D

 73 77  0  0  0  0  0  0  0  0999 V2000
  128.3910  122.0120  135.6740 C   0  0  0  0  0  0  0  0  0  0  0  0
  128.8480  120.5870  135.5850 C   0  0  0  0  0  0  0  0  0  0  0  0
  129.4780  120.1320  134.4510 C   0  0  0  0  0  0  0  0  0  0  0  0
  129.8590  118.8150  134.4680 C   0  0  0  0  0  0  0  0  0  0  0  0
  130.5050  118.1810  133.4090 N   0  0  0  0  0  0  0  0  0  0  0  0
  130.7890  118.6440  132.1520 C   0  0  0  0  0  0  0  0  0  0  0  0
  130.4910  119.7570  131.7280 O   0  0  0  0  0  0  0  0  0  0  0  0
  131.5130  117.6800  131.2450 C   0  0  0  0  0  0  0  0  0  0  0  0
  132.6190  118.1980  130.5450 C   0  0  0  0  0  0  0  0  0  0  0  0
  133.3550  117.4010  129.6650 C   0  0  0  0  0  0  0  0  0  0  0  0
  132.9980  116.0720  129.4730 C   0  0  0  0  0  0  0  0  0  0  0  0
  133.7180  115.2380  128.5730 N   0  0  0  0  0  0  0  0  0  0  0  0
  134.6020  113.9310  129.1660 S   0  0  0  0  0  6  0  0  0  0  0  0
  133.8110  113.3960  130.2560 O   0  0  0  0  0  0  0  0  0  0  0  0
  135.9790  114.3220  129.3640 O   0  0  0  0  0  0  0  0  0  0  0  0
  134.5200  112.7670  127.8190 C   0  0  0  0  0  0  0  0  0  0  0  0
  133.2010  112.9070  127.0910 C   0  0  0  0  0  0  0  0  0  0  0  0
  132.1390  112.8080  128.0380 O   0  0  0  0  0  0  0  0  0  0  0  0
  131.9100  115.5370  130.1660 C   0  0  0  0  0  0  0  0  0  0  0  0
  131.1460  116.3220  131.0550 C   0  0  0  0  0  0  0  0  0  0  0  0
  130.0570  115.7440  131.7530 N   0  0  0  0  0  0  0  0  0  0  0  0
  128.7140  116.0470  131.1930 C   0  0  0  0  0  0  0  0  0  0  0  0
  127.9550  114.7890  130.7630 C   0  0  0  0  0  0  0  0  0  0  0  0
  127.8570  113.7870  131.8990 C   0  0  0  0  0  0  0  0  0  0  0  0
  129.0850  113.7250  132.7940 C   0  0  0  0  0  0  0  0  0  0  0  0
  130.3100  114.3210  132.0960 C   0  0  0  0  0  0  0  0  0  0  0  0
  127.0820  112.5100  131.6430 C   0  0  0  0  0  0  0  0  0  0  0  0
  126.5070  113.5560  132.5490 C   0  0  0  0  0  0  0  0  0  0  0  0
  129.6350  118.0080  135.5210 N   0  0  0  0  0  0  0  0  0  0  0  0
  129.0190  118.5180  136.5950 C   0  0  0  0  0  0  0  0  0  0  0  0
  128.7860  117.6890  137.6910 N   0  0  0  0  0  0  0  0  0  0  0  0
  127.5350  117.9000  138.4180 C   0  0  0  0  0  0  0  0  0  0  0  0
  126.3980  117.1700  137.7160 C   0  0  0  0  0  0  0  0  0  0  0  0
  126.7770  115.7150  137.5160 C   0  0  0  0  0  0  0  0  0  0  0  0
  125.8010  115.0900  136.8050 F   0  0  0  0  0  0  0  0  0  0  0  0
  126.8090  115.0930  138.7280 F   0  0  0  0  0  0  0  0  0  0  0  0
  128.1090  115.5090  136.8220 C   0  0  0  0  0  0  0  0  0  0  0  0
  129.1900  116.2910  137.5560 C   0  0  0  0  0  0  0  0  0  0  0  0
  128.6130  119.7940  136.6500 N   0  0  0  0  0  0  0  0  0  0  0  0
  128.2980  122.3019  136.7310 H   0  0  0  0  0  0  0  0  0  0  0  0
  129.1251  122.6641  135.1781 H   0  0  0  0  0  0  0  0  0  0  0  0
  127.4146  122.1156  135.1781 H   0  0  0  0  0  0  0  0  0  0  0  0
  129.6647  120.7835  133.5846 H   0  0  0  0  0  0  0  0  0  0  0  0
  130.8260  117.2420  133.6320 H   0  0  0  0  0  0  0  0  0  0  0  0
  132.9087  119.2487  130.6936 H   0  0  0  0  0  0  0  0  0  0  0  0
  134.2150  117.8244  129.1254 H   0  0  0  0  0  0  0  0  0  0  0  0
  134.1730  115.6820  127.7750 H   0  0  0  0  0  0  0  0  0  0  0  0
  135.3450  112.9627  127.1182 H   0  0  0  0  0  0  0  0  0  0  0  0
  134.6037  111.7460  128.2196 H   0  0  0  0  0  0  0  0  0  0  0  0
  133.1582  113.8847  126.5888 H   0  0  0  0  0  0  0  0  0  0  0  0
  133.1044  112.1115  126.3375 H   0  0  0  0  0  0  0  0  0  0  0  0
  131.7110  111.9450  127.8970 H   0  0  0  0  0  0  0  0  0  0  0  0
  131.6429  114.4806  130.0154 H   0  0  0  0  0  0  0  0  0  0  0  0
  128.1230  116.5697  131.9595 H   0  0  0  0  0  0  0  0  0  0  0  0
  128.8603  116.6688  130.2975 H   0  0  0  0  0  0  0  0  0  0  0  0
  126.9402  115.0733  130.4478 H   0  0  0  0  0  0  0  0  0  0  0  0
  128.5039  114.3197  129.9333 H   0  0  0  0  0  0  0  0  0  0  0  0
  128.8862  114.2917  133.7156 H   0  0  0  0  0  0  0  0  0  0  0  0
  129.2947  112.6701  133.0247 H   0  0  0  0  0  0  0  0  0  0  0  0
  131.1789  114.2571  132.7675 H   0  0  0  0  0  0  0  0  0  0  0  0
  130.5096  113.7570  131.1729 H   0  0  0  0  0  0  0  0  0  0  0  0
  126.6306  112.3303  130.6561 H   0  0  0  0  0  0  0  0  0  0  0  0
  127.3023  111.4366  131.7394 H   0  0  0  0  0  0  0  0  0  0  0  0
  125.6345  114.1428  132.2259 H   0  0  0  0  0  0  0  0  0  0  0  0
  126.1322  113.5655  133.5831 H   0  0  0  0  0  0  0  0  0  0  0  0
  127.6390  117.5135  139.4426 H   0  0  0  0  0  0  0  0  0  0  0  0
  127.3105  118.9764  138.4476 H   0  0  0  0  0  0  0  0  0  0  0  0
  125.4884  117.2305  138.3316 H   0  0  0  0  0  0  0  0  0  0  0  0
  126.2113  117.6375  136.7380 H   0  0  0  0  0  0  0  0  0  0  0  0
  128.3633  114.4388  136.8268 H   0  0  0  0  0  0  0  0  0  0  0  0
  128.0402  115.8648  135.7834 H   0  0  0  0  0  0  0  0  0  0  0  0
  129.3400  115.8563  138.5553 H   0  0  0  0  0  0  0  0  0  0  0  0
  130.1278  116.2381  136.9836 H   0  0  0  0  0  0  0  0  0  0  0  0
  1  2  1  0
  2  3  2  0
  3  4  1  0
  4  5  1  0
  5  6  1  0
  6  7  2  0
  6  8  1  0
  8  9  2  0
  9 10  1  0
 10 11  2  0
 11 12  1  0
 12 13  1  0
 13 14  2  0
 13 15  2  0
 13 16  1  0
 16 17  1  0
 17 18  1  0
 11 19  1  0
 19 20  2  0
 20 21  1  0
 21 22  1  0
 22 23  1  0
 23 24  1  0
 24 25  1  0
 25 26  1  0
 24 27  1  0
 27 28  1  0
  4 29  2  0
 29 30  1  0
 30 31  1  0
 31 32  1  0
 32 33  1  0
 33 34  1  0
 34 35  1  0
 34 36  1  0
 34 37  1  0
 37 38  1  0
 30 39  2  0
 39  2  1  0
 20  8  1  0
 26 21  1  0
 38 31  1  0
 28 24  1  0
  1 40  1  0
  1 41  1  0
  1 42  1  0
  3 43  1  0
  5 44  1  0
  9 45  1  0
 10 46  1  0
 12 47  1  0
 16 48  1  0
 16 49  1  0
 17 50  1  0
 17 51  1  0
 18 52  1  0
 19 53  1  0
 22 54  1  0
 22 55  1  0
 23 56  1  0
 23 57  1  0
 25 58  1  0
 25 59  1  0
 26 60  1  0
 26 61  1  0
 27 62  1  0
 27 63  1  0
 28 64  1  0
 28 65  1  0
 32 66  1  0
 32 67  1  0
 33 68  1  0
 33 69  1  0
 37 70  1  0
 37 71  1  0
 38 72  1  0
 38 73  1  0
M  END
$$$$

