
     RDKit          3D

 74 78  0  0  0  0  0  0  0  0999 V2000
  131.4090  122.4250  134.8050 C   0  0  0  0  0  0  0  0  0  0  0  0
  131.0180  120.9850  134.6730 C   0  0  0  0  0  0  0  0  0  0  0  0
  131.4880  120.2330  133.6230 C   0  0  0  0  0  0  0  0  0  0  0  0
  131.0760  118.9240  133.5950 C   0  0  0  0  0  0  0  0  0  0  0  0
  131.4560  118.0080  132.6110 N   0  0  0  0  0  0  0  0  0  0  0  0
  131.5440  118.2110  131.2550 C   0  0  0  0  0  0  0  0  0  0  0  0
  131.2870  119.2360  130.6390 O   0  0  0  0  0  0  0  0  0  0  0  0
  132.0020  117.0130  130.5050 C   0  0  0  0  0  0  0  0  0  0  0  0
  133.0420  117.1990  129.5790 C   0  0  0  0  0  0  0  0  0  0  0  0
  133.4980  116.1290  128.8110 C   0  0  0  0  0  0  0  0  0  0  0  0
  132.9190  114.8750  128.9710 C   0  0  0  0  0  0  0  0  0  0  0  0
  133.3440  113.7910  128.1370 N   0  0  0  0  0  0  0  0  0  0  0  0
  134.6990  112.9350  128.7190 S   0  0  0  0  0  6  0  0  0  0  0  0
  135.5460  112.5320  127.6170 O   0  0  0  0  0  0  0  0  0  0  0  0
  134.1700  111.9820  129.6700 O   0  0  0  0  0  0  0  0  0  0  0  0
  135.5480  114.2160  129.6180 C   0  0  0  0  0  0  0  0  0  0  0  0
  136.1500  113.6870  130.9030 C   0  0  0  0  0  0  0  0  0  0  0  0
  137.0210  112.5880  130.6550 O   0  0  0  0  0  0  0  0  0  0  0  0
  131.8680  114.6890  129.8740 C   0  0  0  0  0  0  0  0  0  0  0  0
  131.3990  115.7490  130.6770 C   0  0  0  0  0  0  0  0  0  0  0  0
  130.2560  115.5180  131.6610 C   0  0  0  0  0  0  0  0  0  0  0  0
  130.2000  114.0640  132.1810 C   0  0  0  0  0  0  0  0  0  0  0  0
  128.8520  113.7730  132.8320 C   0  0  0  0  0  0  0  0  0  0  0  0
  127.7240  113.9080  131.8270 C   0  0  0  0  0  0  0  0  0  0  0  0
  127.9930  114.8500  130.6680 C   0  0  0  0  0  0  0  0  0  0  0  0
  128.9050  116.0010  131.0870 C   0  0  0  0  0  0  0  0  0  0  0  0
  126.3090  113.8140  132.3630 C   0  0  0  0  0  0  0  0  0  0  0  0
  126.8670  112.6910  131.5400 C   0  0  0  0  0  0  0  0  0  0  0  0
  130.2640  118.3950  134.5280 N   0  0  0  0  0  0  0  0  0  0  0  0
  129.8400  119.1860  135.5260 C   0  0  0  0  0  0  0  0  0  0  0  0
  129.0160  118.6380  136.5230 N   0  0  0  0  0  0  0  0  0  0  0  0
  129.7210  118.3860  137.7820 C   0  0  0  0  0  0  0  0  0  0  0  0
  128.7260  118.0150  138.8690 C   0  0  0  0  0  0  0  0  0  0  0  0
  127.8540  116.8720  138.4010 C   0  0  0  0  0  0  0  0  0  0  0  0
  126.9340  116.5910  139.3580 F   0  0  0  0  0  0  0  0  0  0  0  0
  128.6110  115.7520  138.2650 F   0  0  0  0  0  0  0  0  0  0  0  0
  127.1480  117.1680  137.0990 C   0  0  0  0  0  0  0  0  0  0  0  0
  128.1620  117.5510  136.0340 C   0  0  0  0  0  0  0  0  0  0  0  0
  130.2050  120.4740  135.6180 N   0  0  0  0  0  0  0  0  0  0  0  0
  131.4808  122.6893  135.8704 H   0  0  0  0  0  0  0  0  0  0  0  0
  132.3834  122.5862  134.3208 H   0  0  0  0  0  0  0  0  0  0  0  0
  130.6499  123.0569  134.3208 H   0  0  0  0  0  0  0  0  0  0  0  0
  132.1523  120.6536  132.8537 H   0  0  0  0  0  0  0  0  0  0  0  0
  131.6590  117.0930  132.9920 H   0  0  0  0  0  0  0  0  0  0  0  0
  133.4981  118.1928  129.4596 H   0  0  0  0  0  0  0  0  0  0  0  0
  134.3100  116.2755  128.0836 H   0  0  0  0  0  0  0  0  0  0  0  0
  133.5830  114.1170  127.1950 H   0  0  0  0  0  0  0  0  0  0  0  0
  136.3524  114.6223  128.9872 H   0  0  0  0  0  0  0  0  0  0  0  0
  134.8188  114.9984  129.8751 H   0  0  0  0  0  0  0  0  0  0  0  0
  136.7197  114.4925  131.3895 H   0  0  0  0  0  0  0  0  0  0  0  0
  135.3319  113.3407  131.5517 H   0  0  0  0  0  0  0  0  0  0  0  0
  137.6780  112.8680  129.9830 H   0  0  0  0  0  0  0  0  0  0  0  0
  131.3985  113.6979  129.9596 H   0  0  0  0  0  0  0  0  0  0  0  0
  130.4658  116.1382  132.5449 H   0  0  0  0  0  0  0  0  0  0  0  0
  130.3498  113.3735  131.3379 H   0  0  0  0  0  0  0  0  0  0  0  0
  130.9913  113.9278  132.9329 H   0  0  0  0  0  0  0  0  0  0  0  0
  128.8585  112.7477  133.2303 H   0  0  0  0  0  0  0  0  0  0  0  0
  128.6893  114.4993  133.6419 H   0  0  0  0  0  0  0  0  0  0  0  0
  128.4758  114.2884  129.8547 H   0  0  0  0  0  0  0  0  0  0  0  0
  127.0335  115.2718  130.3343 H   0  0  0  0  0  0  0  0  0  0  0  0
  129.1024  116.6309  130.2071 H   0  0  0  0  0  0  0  0  0  0  0  0
  128.3888  116.5593  131.8819 H   0  0  0  0  0  0  0  0  0  0  0  0
  126.1383  113.6729  133.4405 H   0  0  0  0  0  0  0  0  0  0  0  0
  125.4128  114.4490  132.3028 H   0  0  0  0  0  0  0  0  0  0  0  0
  127.1047  111.7277  132.0150 H   0  0  0  0  0  0  0  0  0  0  0  0
  126.5479  112.1644  130.6285 H   0  0  0  0  0  0  0  0  0  0  0  0
  130.4327  117.5591  137.6419 H   0  0  0  0  0  0  0  0  0  0  0  0
  130.2612  119.2960  138.0820 H   0  0  0  0  0  0  0  0  0  0  0  0
  129.2717  117.7103  139.7742 H   0  0  0  0  0  0  0  0  0  0  0  0
  128.0922  118.8859  139.0920 H   0  0  0  0  0  0  0  0  0  0  0  0
  126.5964  116.2742  136.7722 H   0  0  0  0  0  0  0  0  0  0  0  0
  126.4486  118.0036  137.2491 H   0  0  0  0  0  0  0  0  0  0  0  0
  128.7858  116.6774  135.7939 H   0  0  0  0  0  0  0  0  0  0  0  0
  127.6293  117.8878  135.1325 H   0  0  0  0  0  0  0  0  0  0  0  0
  1  2  1  0
  2  3  2  0
  3  4  1  0
  4  5  1  0
  5  6  1  0
  6  7  2  0
  6  8  1  0
  8  9  2  0
  9 10  1  0
 10 11  2  0
 11 12  1  0
 12 13  1  0
 13 14  2  0
 13 15  2  0
 13 16  1  0
 16 17  1  0
 17 18  1  0
 11 19  1  0
 19 20  2  0
 20 21  1  0
 21 22  1  0
 22 23  1  0
 23 24  1  0
 24 25  1  0
 25 26  1  0
 24 27  1  0
 27 28  1  0
  4 29  2  0
 29 30  1  0
 30 31  1  0
 31 32  1  0
 32 33  1  0
 33 34  1  0
 34 35  1  0
 34 36  1  0
 34 37  1  0
 37 38  1  0
 30 39  2  0
 39  2  1  0
 20  8  1  0
 26 21  1  0
 38 31  1  0
 28 24  1  0
  1 40  1  0
  1 41  1  0
  1 42  1  0
  3 43  1  0
  5 44  1  0
  9 45  1  0
 10 46  1  0
 12 47  1  0
 16 48  1  0
 16 49  1  0
 17 50  1  0
 17 51  1  0
 18 52  1  0
 19 53  1  0
 21 54  1  0
 22 55  1  0
 22 56  1  0
 23 57  1  0
 23 58  1  0
 25 59  1  0
 25 60  1  0
 26 61  1  0
 26 62  1  0
 27 63  1  0
 27 64  1  0
 28 65  1  0
 28 66  1  0
 32 67  1  0
 32 68  1  0
 33 69  1  0
 33 70  1  0
 37 71  1  0
 37 72  1  0
 38 73  1  0
 38 74  1  0
M  END
$$$$

     RDKit          3D

 74 78  0  0  0  0  0  0  0  0999 V2000
  129.1270  122.0390  134.5590 C   0  0  0  0  0  0  0  0  0  0  0  0
  129.3290  120.5550  134.5310 C   0  0  0  0  0  0  0  0  0  0  0  0
  129.9600  119.9610  133.4640 C   0  0  0  0  0  0  0  0  0  0  0  0
  130.1000  118.5980  133.5360 C   0  0  0  0  0  0  0  0  0  0  0  0
  130.7210  117.8260  132.5510 N   0  0  0  0  0  0  0  0  0  0  0  0
  131.2980  118.2520  131.3800 C   0  0  0  0  0  0  0  0  0  0  0  0
  131.3650  119.3990  130.9600 O   0  0  0  0  0  0  0  0  0  0  0  0
  131.8840  117.1510  130.5730 C   0  0  0  0  0  0  0  0  0  0  0  0
  132.9180  117.4920  129.6840 C   0  0  0  0  0  0  0  0  0  0  0  0
  133.4890  116.5190  128.8660 C   0  0  0  0  0  0  0  0  0  0  0  0
  133.0330  115.2080  128.9390 C   0  0  0  0  0  0  0  0  0  0  0  0
  133.5770  114.2220  128.0540 N   0  0  0  0  0  0  0  0  0  0  0  0
  134.5450  113.0410  128.8130 S   0  0  0  0  0  6  0  0  0  0  0  0
  135.4270  112.4220  127.8460 O   0  0  0  0  0  0  0  0  0  0  0  0
  133.6360  112.2680  129.6300 O   0  0  0  0  0  0  0  0  0  0  0  0
  135.5410  114.0580  129.8840 C   0  0  0  0  0  0  0  0  0  0  0  0
  136.4260  113.2180  130.7810 C   0  0  0  0  0  0  0  0  0  0  0  0
  137.1090  112.2110  130.0410 O   0  0  0  0  0  0  0  0  0  0  0  0
  131.9890  114.8670  129.8050 C   0  0  0  0  0  0  0  0  0  0  0  0
  131.4050  115.8270  130.6570 C   0  0  0  0  0  0  0  0  0  0  0  0
  130.2720  115.4280  131.5980 C   0  0  0  0  0  0  0  0  0  0  0  0
  130.2790  113.9190  131.9350 C   0  0  0  0  0  0  0  0  0  0  0  0
  128.9440  113.4930  132.5380 C   0  0  0  0  0  0  0  0  0  0  0  0
  127.8120  113.7020  131.5510 C   0  0  0  0  0  0  0  0  0  0  0  0
  128.0410  114.7900  130.5170 C   0  0  0  0  0  0  0  0  0  0  0  0
  128.9010  115.9190  131.0800 C   0  0  0  0  0  0  0  0  0  0  0  0
  126.4020  113.4830  132.0620 C   0  0  0  0  0  0  0  0  0  0  0  0
  127.0090  112.4940  131.1110 C   0  0  0  0  0  0  0  0  0  0  0  0
  129.6530  117.8730  134.5760 N   0  0  0  0  0  0  0  0  0  0  0  0
  129.0430  118.5160  135.5850 C   0  0  0  0  0  0  0  0  0  0  0  0
  128.5970  117.7740  136.6920 N   0  0  0  0  0  0  0  0  0  0  0  0
  127.6820  116.6900  136.3310 C   0  0  0  0  0  0  0  0  0  0  0  0
  127.4280  115.8010  137.5370 C   0  0  0  0  0  0  0  0  0  0  0  0
  126.9710  116.6400  138.7080 C   0  0  0  0  0  0  0  0  0  0  0  0
  126.8050  115.8410  139.7930 F   0  0  0  0  0  0  0  0  0  0  0  0
  125.7480  117.1670  138.4380 F   0  0  0  0  0  0  0  0  0  0  0  0
  127.9370  117.7490  139.0480 C   0  0  0  0  0  0  0  0  0  0  0  0
  128.1870  118.6140  137.8220 C   0  0  0  0  0  0  0  0  0  0  0  0
  128.8740  119.8470  135.5830 N   0  0  0  0  0  0  0  0  0  0  0  0
  129.0802  122.3830  135.6028 H   0  0  0  0  0  0  0  0  0  0  0  0
  129.9662  122.5330  134.0474 H   0  0  0  0  0  0  0  0  0  0  0  0
  128.1863  122.2907  134.0474 H   0  0  0  0  0  0  0  0  0  0  0  0
  130.3296  120.5420  132.6062 H   0  0  0  0  0  0  0  0  0  0  0  0
  130.6950  116.8370  132.7630 H   0  0  0  0  0  0  0  0  0  0  0  0
  133.2776  118.5303  129.6338 H   0  0  0  0  0  0  0  0  0  0  0  0
  134.2952  116.7867  128.1672 H   0  0  0  0  0  0  0  0  0  0  0  0
  134.1540  114.6530  127.3250 H   0  0  0  0  0  0  0  0  0  0  0  0
  136.1750  114.7124  129.2677 H   0  0  0  0  0  0  0  0  0  0  0  0
  134.8682  114.6515  130.5205 H   0  0  0  0  0  0  0  0  0  0  0  0
  137.1670  113.8708  131.2655 H   0  0  0  0  0  0  0  0  0  0  0  0
  135.7903  112.7252  131.5314 H   0  0  0  0  0  0  0  0  0  0  0  0
  136.9670  111.3530  130.4940 H   0  0  0  0  0  0  0  0  0  0  0  0
  131.6170  113.8319  129.8218 H   0  0  0  0  0  0  0  0  0  0  0  0
  130.4540  115.9440  132.5523 H   0  0  0  0  0  0  0  0  0  0  0  0
  130.4587  113.3446  131.0143 H   0  0  0  0  0  0  0  0  0  0  0  0
  131.0754  113.7250  132.6685 H   0  0  0  0  0  0  0  0  0  0  0  0
  128.9944  112.4277  132.8076 H   0  0  0  0  0  0  0  0  0  0  0  0
  128.7499  114.1069  133.4299 H   0  0  0  0  0  0  0  0  0  0  0  0
  128.5491  114.3537  129.6444 H   0  0  0  0  0  0  0  0  0  0  0  0
  127.0645  115.2075  130.2305 H   0  0  0  0  0  0  0  0  0  0  0  0
  129.0708  116.6608  130.2857 H   0  0  0  0  0  0  0  0  0  0  0  0
  128.3603  116.3519  131.9346 H   0  0  0  0  0  0  0  0  0  0  0  0
  126.2361  113.2036  133.1129 H   0  0  0  0  0  0  0  0  0  0  0  0
  125.4795  114.0820  132.0742 H   0  0  0  0  0  0  0  0  0  0  0  0
  127.2874  111.4907  131.4658 H   0  0  0  0  0  0  0  0  0  0  0  0
  126.7143  112.0701  130.1397 H   0  0  0  0  0  0  0  0  0  0  0  0
  126.7288  117.1174  135.9863 H   0  0  0  0  0  0  0  0  0  0  0  0
  128.1333  116.0889  135.5279 H   0  0  0  0  0  0  0  0  0  0  0  0
  126.6489  115.0649  137.2898 H   0  0  0  0  0  0  0  0  0  0  0  0
  128.3593  115.2810  137.8059 H   0  0  0  0  0  0  0  0  0  0  0  0
  127.5119  118.3691  139.8510 H   0  0  0  0  0  0  0  0  0  0  0  0
  128.8890  117.3097  139.3807 H   0  0  0  0  0  0  0  0  0  0  0  0
  127.2634  119.1513  137.5605 H   0  0  0  0  0  0  0  0  0  0  0  0
  128.9870  119.3352  138.0454 H   0  0  0  0  0  0  0  0  0  0  0  0
  1  2  1  0
  2  3  2  0
  3  4  1  0
  4  5  1  0
  5  6  1  0
  6  7  2  0
  6  8  1  0
  8  9  2  0
  9 10  1  0
 10 11  2  0
 11 12  1  0
 12 13  1  0
 13 14  2  0
 13 15  2  0
 13 16  1  0
 16 17  1  0
 17 18  1  0
 11 19  1  0
 19 20  2  0
 20 21  1  0
 21 22  1  0
 22 23  1  0
 23 24  1  0
 24 25  1  0
 25 26  1  0
 24 27  1  0
 27 28  1  0
  4 29  2  0
 29 30  1  0
 30 31  1  0
 31 32  1  0
 32 33  1  0
 33 34  1  0
 34 35  1  0
 34 36  1  0
 34 37  1  0
 37 38  1  0
 30 39  2  0
 39  2  1  0
 20  8  1  0
 26 21  1  0
 38 31  1  0
 28 24  1  0
  1 40  1  0
  1 41  1  0
  1 42  1  0
  3 43  1  0
  5 44  1  0
  9 45  1  0
 10 46  1  0
 12 47  1  0
 16 48  1  0
 16 49  1  0
 17 50  1  0
 17 51  1  0
 18 52  1  0
 19 53  1  0
 21 54  1  0
 22 55  1  0
 22 56  1  0
 23 57  1  0
 23 58  1  0
 25 59  1  0
 25 60  1  0
 26 61  1  0
 26 62  1  0
 27 63  1  0
 27 64  1  0
 28 65  1  0
 28 66  1  0
 32 67  1  0
 32 68  1  0
 33 69  1  0
 33 70  1  0
 37 71  1  0
 37 72  1  0
 38 73  1  0
 38 74  1  0
M  END
$$$$

     RDKit          3D

 74 78  0  0  0  0  0  0  0  0999 V2000
  129.1150  122.5000  134.6800 C   0  0  0  0  0  0  0  0  0  0  0  0
  129.2050  121.0050  134.6340 C   0  0  0  0  0  0  0  0  0  0  0  0
  129.9000  120.3840  133.6230 C   0  0  0  0  0  0  0  0  0  0  0  0
  129.9270  119.0130  133.6730 C   0  0  0  0  0  0  0  0  0  0  0  0
  130.5890  118.2120  132.7380 N   0  0  0  0  0  0  0  0  0  0  0  0
  131.0460  118.5670  131.4930 C   0  0  0  0  0  0  0  0  0  0  0  0
  130.9450  119.6580  130.9480 O   0  0  0  0  0  0  0  0  0  0  0  0
  131.7240  117.4600  130.7710 C   0  0  0  0  0  0  0  0  0  0  0  0
  132.7960  117.8070  129.9320 C   0  0  0  0  0  0  0  0  0  0  0  0
  133.4550  116.8240  129.1940 C   0  0  0  0  0  0  0  0  0  0  0  0
  133.0480  115.5000  129.2980 C   0  0  0  0  0  0  0  0  0  0  0  0
  133.6840  114.5010  128.4910 N   0  0  0  0  0  0  0  0  0  0  0  0
  133.5320  112.9080  129.0800 S   0  0  0  0  0  6  0  0  0  0  0  0
  132.8520  112.0790  128.1070 O   0  0  0  0  0  0  0  0  0  0  0  0
  133.0560  113.0460  130.4390 O   0  0  0  0  0  0  0  0  0  0  0  0
  135.2390  112.4010  129.1290 C   0  0  0  0  0  0  0  0  0  0  0  0
  136.0360  113.2290  130.1150 C   0  0  0  0  0  0  0  0  0  0  0  0
  136.3640  114.5060  129.5760 O   0  0  0  0  0  0  0  0  0  0  0  0
  131.9670  115.1510  130.1140 C   0  0  0  0  0  0  0  0  0  0  0  0
  131.2940  116.1210  130.8860 C   0  0  0  0  0  0  0  0  0  0  0  0
  130.1220  115.7140  131.7740 C   0  0  0  0  0  0  0  0  0  0  0  0
  130.1960  114.2360  132.2200 C   0  0  0  0  0  0  0  0  0  0  0  0
  128.8490  113.7650  132.7610 C   0  0  0  0  0  0  0  0  0  0  0  0
  127.7810  113.8320  131.6860 C   0  0  0  0  0  0  0  0  0  0  0  0
  128.0180  114.8590  130.5940 C   0  0  0  0  0  0  0  0  0  0  0  0
  128.7650  116.0780  131.1310 C   0  0  0  0  0  0  0  0  0  0  0  0
  126.3540  113.5560  132.1160 C   0  0  0  0  0  0  0  0  0  0  0  0
  127.0860  112.5460  131.2830 C   0  0  0  0  0  0  0  0  0  0  0  0
  129.3180  118.3060  134.6410 N   0  0  0  0  0  0  0  0  0  0  0  0
  128.6550  118.9750  135.5970 C   0  0  0  0  0  0  0  0  0  0  0  0
  128.0380  118.2500  136.6310 N   0  0  0  0  0  0  0  0  0  0  0  0
  128.7860  118.2890  137.8890 C   0  0  0  0  0  0  0  0  0  0  0  0
  127.9530  117.6840  139.0070 C   0  0  0  0  0  0  0  0  0  0  0  0
  127.4770  116.3070  138.6060 C   0  0  0  0  0  0  0  0  0  0  0  0
  126.6870  115.8030  139.5890 F   0  0  0  0  0  0  0  0  0  0  0  0
  128.5410  115.4680  138.5120 F   0  0  0  0  0  0  0  0  0  0  0  0
  126.7140  116.3060  137.3030 C   0  0  0  0  0  0  0  0  0  0  0  0
  127.5610  116.9300  136.2060 C   0  0  0  0  0  0  0  0  0  0  0  0
  128.5890  120.3150  135.6130 N   0  0  0  0  0  0  0  0  0  0  0  0
  129.0949  122.8341  135.7278 H   0  0  0  0  0  0  0  0  0  0  0  0
  129.9885  122.9357  134.1729 H   0  0  0  0  0  0  0  0  0  0  0  0
  128.1955  122.8278  134.1729 H   0  0  0  0  0  0  0  0  0  0  0  0
  130.4024  120.9503  132.8249 H   0  0  0  0  0  0  0  0  0  0  0  0
  130.7000  117.2580  133.0560 H   0  0  0  0  0  0  0  0  0  0  0  0
  133.1165  118.8566  129.8569 H   0  0  0  0  0  0  0  0  0  0  0  0
  134.2918  117.0955  128.5337 H   0  0  0  0  0  0  0  0  0  0  0  0
  134.6880  114.6850  128.3930 H   0  0  0  0  0  0  0  0  0  0  0  0
  135.2893  111.3435  129.4275 H   0  0  0  0  0  0  0  0  0  0  0  0
  135.6710  112.5464  128.1279 H   0  0  0  0  0  0  0  0  0  0  0  0
  135.4400  113.3687  131.0290 H   0  0  0  0  0  0  0  0  0  0  0  0
  136.9724  112.6962  130.3371 H   0  0  0  0  0  0  0  0  0  0  0  0
  137.2790  114.4620  129.2270 H   0  0  0  0  0  0  0  0  0  0  0  0
  131.6361  114.1027  130.1544 H   0  0  0  0  0  0  0  0  0  0  0  0
  130.2030  116.3051  132.6981 H   0  0  0  0  0  0  0  0  0  0  0  0
  130.4762  113.6128  131.3580 H   0  0  0  0  0  0  0  0  0  0  0  0
  130.9475  114.1458  133.0182 H   0  0  0  0  0  0  0  0  0  0  0  0
  128.9443  112.7261  133.1099 H   0  0  0  0  0  0  0  0  0  0  0  0
  128.5539  114.4234  133.5913 H   0  0  0  0  0  0  0  0  0  0  0  0
  128.6137  114.3984  129.7921 H   0  0  0  0  0  0  0  0  0  0  0  0
  127.0414  115.1910  130.2119 H   0  0  0  0  0  0  0  0  0  0  0  0
  128.9460  116.7739  130.2986 H   0  0  0  0  0  0  0  0  0  0  0  0
  128.1390  116.5315  131.9136 H   0  0  0  0  0  0  0  0  0  0  0  0
  126.1307  113.3393  133.1711 H   0  0  0  0  0  0  0  0  0  0  0  0
  125.3982  114.0924  132.0224 H   0  0  0  0  0  0  0  0  0  0  0  0
  127.3988  111.5900  131.7283 H   0  0  0  0  0  0  0  0  0  0  0  0
  126.8876  112.0377  130.3279 H   0  0  0  0  0  0  0  0  0  0  0  0
  129.7176  117.7149  137.7770 H   0  0  0  0  0  0  0  0  0  0  0  0
  129.0202  119.3345  138.1380 H   0  0  0  0  0  0  0  0  0  0  0  0
  128.5653  117.6075  139.9177 H   0  0  0  0  0  0  0  0  0  0  0  0
  127.0814  118.3272  139.1981 H   0  0  0  0  0  0  0  0  0  0  0  0
  126.4651  115.2707  137.0270 H   0  0  0  0  0  0  0  0  0  0  0  0
  125.7905  116.8912  137.4241 H   0  0  0  0  0  0  0  0  0  0  0  0
  128.4239  116.2804  135.9979 H   0  0  0  0  0  0  0  0  0  0  0  0
  126.9507  117.0416  135.2976 H   0  0  0  0  0  0  0  0  0  0  0  0
  1  2  1  0
  2  3  2  0
  3  4  1  0
  4  5  1  0
  5  6  1  0
  6  7  2  0
  6  8  1  0
  8  9  2  0
  9 10  1  0
 10 11  2  0
 11 12  1  0
 12 13  1  0
 13 14  2  0
 13 15  2  0
 13 16  1  0
 16 17  1  0
 17 18  1  0
 11 19  1  0
 19 20  2  0
 20 21  1  0
 21 22  1  0
 22 23  1  0
 23 24  1  0
 24 25  1  0
 25 26  1  0
 24 27  1  0
 27 28  1  0
  4 29  2  0
 29 30  1  0
 30 31  1  0
 31 32  1  0
 32 33  1  0
 33 34  1  0
 34 35  1  0
 34 36  1  0
 34 37  1  0
 37 38  1  0
 30 39  2  0
 39  2  1  0
 20  8  1  0
 26 21  1  0
 38 31  1  0
 28 24  1  0
  1 40  1  0
  1 41  1  0
  1 42  1  0
  3 43  1  0
  5 44  1  0
  9 45  1  0
 10 46  1  0
 12 47  1  0
 16 48  1  0
 16 49  1  0
 17 50  1  0
 17 51  1  0
 18 52  1  0
 19 53  1  0
 21 54  1  0
 22 55  1  0
 22 56  1  0
 23 57  1  0
 23 58  1  0
 25 59  1  0
 25 60  1  0
 26 61  1  0
 26 62  1  0
 27 63  1  0
 27 64  1  0
 28 65  1  0
 28 66  1  0
 32 67  1  0
 32 68  1  0
 33 69  1  0
 33 70  1  0
 37 71  1  0
 37 72  1  0
 38 73  1  0
 38 74  1  0
M  END
$$$$

     RDKit          3D

 74 78  0  0  0  0  0  0  0  0999 V2000
  129.2370  122.3950  134.1820 C   0  0  0  0  0  0  0  0  0  0  0  0
  129.3220  120.9000  134.2570 C   0  0  0  0  0  0  0  0  0  0  0  0
  129.9980  120.1950  133.2910 C   0  0  0  0  0  0  0  0  0  0  0  0
  130.0220  118.8330  133.4520 C   0  0  0  0  0  0  0  0  0  0  0  0
  130.6660  117.9550  132.5770 N   0  0  0  0  0  0  0  0  0  0  0  0
  131.2090  118.2350  131.3460 C   0  0  0  0  0  0  0  0  0  0  0  0
  131.2170  119.3110  130.7650 O   0  0  0  0  0  0  0  0  0  0  0  0
  131.8350  117.0570  130.6930 C   0  0  0  0  0  0  0  0  0  0  0  0
  132.9110  117.3060  129.8240 C   0  0  0  0  0  0  0  0  0  0  0  0
  133.5230  116.2530  129.1460 C   0  0  0  0  0  0  0  0  0  0  0  0
  133.0660  114.9550  129.3390 C   0  0  0  0  0  0  0  0  0  0  0  0
  133.6540  113.8820  128.5930 N   0  0  0  0  0  0  0  0  0  0  0  0
  135.3110  113.6280  128.9000 S   0  0  0  0  0  6  0  0  0  0  0  0
  135.9030  114.8220  129.4650 O   0  0  0  0  0  0  0  0  0  0  0  0
  135.8310  113.0040  127.7030 O   0  0  0  0  0  0  0  0  0  0  0  0
  135.2330  112.3990  130.1880 C   0  0  0  0  0  0  0  0  0  0  0  0
  133.8140  111.9180  130.4100 C   0  0  0  0  0  0  0  0  0  0  0  0
  133.5690  111.6370  131.7850 O   0  0  0  0  0  0  0  0  0  0  0  0
  131.9810  114.7030  130.1840 C   0  0  0  0  0  0  0  0  0  0  0  0
  131.3540  115.7460  130.8970 C   0  0  0  0  0  0  0  0  0  0  0  0
  130.1760  115.4440  131.8190 C   0  0  0  0  0  0  0  0  0  0  0  0
  130.1680  113.9810  132.3180 C   0  0  0  0  0  0  0  0  0  0  0  0
  128.8060  113.6150  132.8980 C   0  0  0  0  0  0  0  0  0  0  0  0
  127.7240  113.7080  131.8390 C   0  0  0  0  0  0  0  0  0  0  0  0
  128.0020  114.6800  130.7070 C   0  0  0  0  0  0  0  0  0  0  0  0
  128.8330  115.8680  131.1850 C   0  0  0  0  0  0  0  0  0  0  0  0
  126.2900  113.5370  132.3020 C   0  0  0  0  0  0  0  0  0  0  0  0
  126.9440  112.4550  131.4950 C   0  0  0  0  0  0  0  0  0  0  0  0
  129.4280  118.2110  134.4860 N   0  0  0  0  0  0  0  0  0  0  0  0
  128.7820  118.9600  135.3940 C   0  0  0  0  0  0  0  0  0  0  0  0
  128.1810  118.3250  136.4940 N   0  0  0  0  0  0  0  0  0  0  0  0
  128.9670  118.4350  137.7250 C   0  0  0  0  0  0  0  0  0  0  0  0
  128.1550  117.9310  138.9060 C   0  0  0  0  0  0  0  0  0  0  0  0
  127.6370  116.5410  138.6190 C   0  0  0  0  0  0  0  0  0  0  0  0
  126.8660  116.1270  139.6580 F   0  0  0  0  0  0  0  0  0  0  0  0
  128.6790  115.6720  138.5560 F   0  0  0  0  0  0  0  0  0  0  0  0
  126.8350  116.4660  137.3420 C   0  0  0  0  0  0  0  0  0  0  0  0
  127.6630  116.9900  136.1790 C   0  0  0  0  0  0  0  0  0  0  0  0
  128.7200  120.2970  135.3010 N   0  0  0  0  0  0  0  0  0  0  0  0
  129.2133  122.8124  135.1995 H   0  0  0  0  0  0  0  0  0  0  0  0
  130.1144  122.7857  133.6458 H   0  0  0  0  0  0  0  0  0  0  0  0
  128.3210  122.6837  133.6458 H   0  0  0  0  0  0  0  0  0  0  0  0
  130.4894  120.6917  132.4414 H   0  0  0  0  0  0  0  0  0  0  0  0
  130.6890  117.0070  132.9270 H   0  0  0  0  0  0  0  0  0  0  0  0
  133.2714  118.3350  129.6784 H   0  0  0  0  0  0  0  0  0  0  0  0
  134.3624  116.4483  128.4625 H   0  0  0  0  0  0  0  0  0  0  0  0
  133.5600  114.0340  127.5840 H   0  0  0  0  0  0  0  0  0  0  0  0
  135.8606  111.5418  129.9028 H   0  0  0  0  0  0  0  0  0  0  0  0
  135.5936  112.8542  131.1222 H   0  0  0  0  0  0  0  0  0  0  0  0
  133.1151  112.6982  130.0742 H   0  0  0  0  0  0  0  0  0  0  0  0
  133.6693  110.9907  129.8363 H   0  0  0  0  0  0  0  0  0  0  0  0
  132.9510  112.3170  132.1280 H   0  0  0  0  0  0  0  0  0  0  0  0
  131.6099  113.6734  130.2947 H   0  0  0  0  0  0  0  0  0  0  0  0
  130.3099  116.0611  132.7197 H   0  0  0  0  0  0  0  0  0  0  0  0
  130.3930  113.3111  131.4750 H   0  0  0  0  0  0  0  0  0  0  0  0
  130.9278  113.8727  133.1060 H   0  0  0  0  0  0  0  0  0  0  0  0
  128.8440  112.5859  133.2847 H   0  0  0  0  0  0  0  0  0  0  0  0
  128.5674  114.3209  133.7072 H   0  0  0  0  0  0  0  0  0  0  0  0
  128.5518  114.1554  129.9117 H   0  0  0  0  0  0  0  0  0  0  0  0
  127.0399  115.0589  130.3316 H   0  0  0  0  0  0  0  0  0  0  0  0
  129.0414  116.5200  130.3239 H   0  0  0  0  0  0  0  0  0  0  0  0
  128.2510  116.3882  131.9601 H   0  0  0  0  0  0  0  0  0  0  0  0
  126.0730  113.3722  133.3677 H   0  0  0  0  0  0  0  0  0  0  0  0
  125.3673  114.1279  132.2042 H   0  0  0  0  0  0  0  0  0  0  0  0
  127.2055  111.4979  131.9699 H   0  0  0  0  0  0  0  0  0  0  0  0
  126.6974  111.9266  130.5623 H   0  0  0  0  0  0  0  0  0  0  0  0
  129.8820  117.8322  137.6282 H   0  0  0  0  0  0  0  0  0  0  0  0
  129.2313  119.4896  137.8920 H   0  0  0  0  0  0  0  0  0  0  0  0
  128.7924  117.9048  139.8021 H   0  0  0  0  0  0  0  0  0  0  0  0
  127.3036  118.6068  139.0746 H   0  0  0  0  0  0  0  0  0  0  0  0
  126.5549  115.4201  137.1482 H   0  0  0  0  0  0  0  0  0  0  0  0
  125.9287  117.0805  137.4470 H   0  0  0  0  0  0  0  0  0  0  0  0
  128.5050  116.3067  135.9942 H   0  0  0  0  0  0  0  0  0  0  0  0
  127.0286  117.0510  135.2824 H   0  0  0  0  0  0  0  0  0  0  0  0
  1  2  1  0
  2  3  2  0
  3  4  1  0
  4  5  1  0
  5  6  1  0
  6  7  2  0
  6  8  1  0
  8  9  2  0
  9 10  1  0
 10 11  2  0
 11 12  1  0
 12 13  1  0
 13 14  2  0
 13 15  2  0
 13 16  1  0
 16 17  1  0
 17 18  1  0
 11 19  1  0
 19 20  2  0
 20 21  1  0
 21 22  1  0
 22 23  1  0
 23 24  1  0
 24 25  1  0
 25 26  1  0
 24 27  1  0
 27 28  1  0
  4 29  2  0
 29 30  1  0
 30 31  1  0
 31 32  1  0
 32 33  1  0
 33 34  1  0
 34 35  1  0
 34 36  1  0
 34 37  1  0
 37 38  1  0
 30 39  2  0
 39  2  1  0
 20  8  1  0
 26 21  1  0
 38 31  1  0
 28 24  1  0
  1 40  1  0
  1 41  1  0
  1 42  1  0
  3 43  1  0
  5 44  1  0
  9 45  1  0
 10 46  1  0
 12 47  1  0
 16 48  1  0
 16 49  1  0
 17 50  1  0
 17 51  1  0
 18 52  1  0
 19 53  1  0
 21 54  1  0
 22 55  1  0
 22 56  1  0
 23 57  1  0
 23 58  1  0
 25 59  1  0
 25 60  1  0
 26 61  1  0
 26 62  1  0
 27 63  1  0
 27 64  1  0
 28 65  1  0
 28 66  1  0
 32 67  1  0
 32 68  1  0
 33 69  1  0
 33 70  1  0
 37 71  1  0
 37 72  1  0
 38 73  1  0
 38 74  1  0
M  END
$$$$

     RDKit          3D

 74 78  0  0  0  0  0  0  0  0999 V2000
  129.0250  122.6850  134.6060 C   0  0  0  0  0  0  0  0  0  0  0  0
  129.1770  121.1950  134.6020 C   0  0  0  0  0  0  0  0  0  0  0  0
  129.8990  120.5750  133.6100 C   0  0  0  0  0  0  0  0  0  0  0  0
  129.9830  119.2080  133.6980 C   0  0  0  0  0  0  0  0  0  0  0  0
  130.6800  118.4100  132.7870 N   0  0  0  0  0  0  0  0  0  0  0  0
  131.0940  118.7370  131.5190 C   0  0  0  0  0  0  0  0  0  0  0  0
  130.9150  119.7940  130.9300 O   0  0  0  0  0  0  0  0  0  0  0  0
  131.8290  117.6430  130.8350 C   0  0  0  0  0  0  0  0  0  0  0  0
  132.9190  118.0130  130.0280 C   0  0  0  0  0  0  0  0  0  0  0  0
  133.6320  117.0440  129.3250 C   0  0  0  0  0  0  0  0  0  0  0  0
  133.2610  115.7080  129.4300 C   0  0  0  0  0  0  0  0  0  0  0  0
  133.9550  114.7210  128.6570 N   0  0  0  0  0  0  0  0  0  0  0  0
  133.5830  113.1080  129.0660 S   0  0  0  0  0  6  0  0  0  0  0  0
  132.3420  113.0550  129.8090 O   0  0  0  0  0  0  0  0  0  0  0  0
  134.8130  112.5510  129.5830 O   0  0  0  0  0  0  0  0  0  0  0  0
  133.2820  112.4120  127.4540 C   0  0  0  0  0  0  0  0  0  0  0  0
  131.8010  112.2410  127.1910 C   0  0  0  0  0  0  0  0  0  0  0  0
  131.5400  111.0650  126.4310 O   0  0  0  0  0  0  0  0  0  0  0  0
  132.1640  115.3360  130.2130 C   0  0  0  0  0  0  0  0  0  0  0  0
  131.4360  116.2930  130.9490 C   0  0  0  0  0  0  0  0  0  0  0  0
  130.2460  115.8600  131.8020 C   0  0  0  0  0  0  0  0  0  0  0  0
  130.3250  114.3760  132.2270 C   0  0  0  0  0  0  0  0  0  0  0  0
  128.9700  113.8830  132.7260 C   0  0  0  0  0  0  0  0  0  0  0  0
  127.9290  113.9550  131.6260 C   0  0  0  0  0  0  0  0  0  0  0  0
  128.1810  115.0020  130.5560 C   0  0  0  0  0  0  0  0  0  0  0  0
  128.9020  116.2200  131.1300 C   0  0  0  0  0  0  0  0  0  0  0  0
  126.4940  113.6580  132.0150 C   0  0  0  0  0  0  0  0  0  0  0  0
  127.2580  112.6690  131.1860 C   0  0  0  0  0  0  0  0  0  0  0  0
  129.4010  118.5040  134.6850 N   0  0  0  0  0  0  0  0  0  0  0  0
  128.7080  119.1720  135.6210 C   0  0  0  0  0  0  0  0  0  0  0  0
  128.1200  118.4510  136.6740 N   0  0  0  0  0  0  0  0  0  0  0  0
  128.9050  118.4890  137.9100 C   0  0  0  0  0  0  0  0  0  0  0  0
  128.1030  117.8890  139.0530 C   0  0  0  0  0  0  0  0  0  0  0  0
  127.6090  116.5140  138.6690 C   0  0  0  0  0  0  0  0  0  0  0  0
  126.8470  116.0150  139.6760 F   0  0  0  0  0  0  0  0  0  0  0  0
  128.6670  115.6700  138.5450 F   0  0  0  0  0  0  0  0  0  0  0  0
  126.8080  116.5140  137.3890 C   0  0  0  0  0  0  0  0  0  0  0  0
  127.6240  117.1330  136.2660 C   0  0  0  0  0  0  0  0  0  0  0  0
  128.5870  120.5080  135.6000 N   0  0  0  0  0  0  0  0  0  0  0  0
  128.9881  123.0470  135.6441 H   0  0  0  0  0  0  0  0  0  0  0  0
  129.8811  123.1423  134.0884 H   0  0  0  0  0  0  0  0  0  0  0  0
  128.0941  122.9600  134.0884 H   0  0  0  0  0  0  0  0  0  0  0  0
  130.3792  121.1391  132.7968 H   0  0  0  0  0  0  0  0  0  0  0  0
  130.8550  117.4800  133.1440 H   0  0  0  0  0  0  0  0  0  0  0  0
  133.2100  119.0710  129.9513 H   0  0  0  0  0  0  0  0  0  0  0  0
  134.4829  117.3340  128.6910 H   0  0  0  0  0  0  0  0  0  0  0  0
  134.9710  114.8230  128.7480 H   0  0  0  0  0  0  0  0  0  0  0  0
  133.7055  113.0815  126.6909 H   0  0  0  0  0  0  0  0  0  0  0  0
  133.7566  111.4205  127.4122 H   0  0  0  0  0  0  0  0  0  0  0  0
  131.2726  112.1698  128.1532 H   0  0  0  0  0  0  0  0  0  0  0  0
  131.4492  113.1100  126.6155 H   0  0  0  0  0  0  0  0  0  0  0  0
  132.3800  110.7790  126.0160 H   0  0  0  0  0  0  0  0  0  0  0  0
  131.8638  114.2786  130.2555 H   0  0  0  0  0  0  0  0  0  0  0  0
  130.2972  116.4371  132.7371 H   0  0  0  0  0  0  0  0  0  0  0  0
  130.6338  113.7693  131.3630 H   0  0  0  0  0  0  0  0  0  0  0  0
  131.0571  114.2810  133.0425 H   0  0  0  0  0  0  0  0  0  0  0  0
  129.0676  112.8400  133.0616 H   0  0  0  0  0  0  0  0  0  0  0  0
  128.6469  114.5260  133.5580 H   0  0  0  0  0  0  0  0  0  0  0  0
  128.8005  114.5604  129.7615 H   0  0  0  0  0  0  0  0  0  0  0  0
  127.2103  115.3299  130.1558 H   0  0  0  0  0  0  0  0  0  0  0  0
  129.0970  116.9301  130.3129 H   0  0  0  0  0  0  0  0  0  0  0  0
  128.2518  116.6552  131.9032 H   0  0  0  0  0  0  0  0  0  0  0  0
  126.2460  113.4226  133.0605 H   0  0  0  0  0  0  0  0  0  0  0  0
  125.5353  114.1859  131.9050 H   0  0  0  0  0  0  0  0  0  0  0  0
  127.5693  111.7094  131.6246 H   0  0  0  0  0  0  0  0  0  0  0  0
  127.0895  112.1737  130.2184 H   0  0  0  0  0  0  0  0  0  0  0  0
  129.8307  117.9111  137.7717 H   0  0  0  0  0  0  0  0  0  0  0  0
  129.1504  119.5340  138.1503 H   0  0  0  0  0  0  0  0  0  0  0  0
  128.7418  117.8110  139.9451 H   0  0  0  0  0  0  0  0  0  0  0  0
  127.2402  118.5364  139.2686 H   0  0  0  0  0  0  0  0  0  0  0  0
  126.5472  115.4792  137.1223 H   0  0  0  0  0  0  0  0  0  0  0  0
  125.8909  117.1033  137.5366 H   0  0  0  0  0  0  0  0  0  0  0  0
  128.4771  116.4791  136.0325 H   0  0  0  0  0  0  0  0  0  0  0  0
  126.9865  117.2466  135.3768 H   0  0  0  0  0  0  0  0  0  0  0  0
  1  2  1  0
  2  3  2  0
  3  4  1  0
  4  5  1  0
  5  6  1  0
  6  7  2  0
  6  8  1  0
  8  9  2  0
  9 10  1  0
 10 11  2  0
 11 12  1  0
 12 13  1  0
 13 14  2  0
 13 15  2  0
 13 16  1  0
 16 17  1  0
 17 18  1  0
 11 19  1  0
 19 20  2  0
 20 21  1  0
 21 22  1  0
 22 23  1  0
 23 24  1  0
 24 25  1  0
 25 26  1  0
 24 27  1  0
 27 28  1  0
  4 29  2  0
 29 30  1  0
 30 31  1  0
 31 32  1  0
 32 33  1  0
 33 34  1  0
 34 35  1  0
 34 36  1  0
 34 37  1  0
 37 38  1  0
 30 39  2  0
 39  2  1  0
 20  8  1  0
 26 21  1  0
 38 31  1  0
 28 24  1  0
  1 40  1  0
  1 41  1  0
  1 42  1  0
  3 43  1  0
  5 44  1  0
  9 45  1  0
 10 46  1  0
 12 47  1  0
 16 48  1  0
 16 49  1  0
 17 50  1  0
 17 51  1  0
 18 52  1  0
 19 53  1  0
 21 54  1  0
 22 55  1  0
 22 56  1  0
 23 57  1  0
 23 58  1  0
 25 59  1  0
 25 60  1  0
 26 61  1  0
 26 62  1  0
 27 63  1  0
 27 64  1  0
 28 65  1  0
 28 66  1  0
 32 67  1  0
 32 68  1  0
 33 69  1  0
 33 70  1  0
 37 71  1  0
 37 72  1  0
 38 73  1  0
 38 74  1  0
M  END
$$$$

     RDKit          3D

 74 78  0  0  0  0  0  0  0  0999 V2000
  128.7610  122.1010  135.2860 C   0  0  0  0  0  0  0  0  0  0  0  0
  129.0030  120.6310  135.1210 C   0  0  0  0  0  0  0  0  0  0  0  0
  129.7110  120.1630  134.0400 C   0  0  0  0  0  0  0  0  0  0  0  0
  129.8820  118.8030  133.9820 C   0  0  0  0  0  0  0  0  0  0  0  0
  130.5800  118.1480  132.9640 N   0  0  0  0  0  0  0  0  0  0  0  0
  131.0050  118.6620  131.7640 C   0  0  0  0  0  0  0  0  0  0  0  0
  130.8380  119.7980  131.3420 O   0  0  0  0  0  0  0  0  0  0  0  0
  131.7380  117.6800  130.9240 C   0  0  0  0  0  0  0  0  0  0  0  0
  132.7620  118.1810  130.1030 C   0  0  0  0  0  0  0  0  0  0  0  0
  133.4670  117.3230  129.2590 C   0  0  0  0  0  0  0  0  0  0  0  0
  133.1530  115.9700  129.2390 C   0  0  0  0  0  0  0  0  0  0  0  0
  133.8340  115.1010  128.3260 N   0  0  0  0  0  0  0  0  0  0  0  0
  134.5660  113.7420  129.0500 S   0  0  0  0  0  6  0  0  0  0  0  0
  133.9020  113.4210  130.2950 O   0  0  0  0  0  0  0  0  0  0  0  0
  135.9900  113.9900  128.9790 O   0  0  0  0  0  0  0  0  0  0  0  0
  134.1570  112.4700  127.8710 C   0  0  0  0  0  0  0  0  0  0  0  0
  132.7080  112.5570  127.4420 C   0  0  0  0  0  0  0  0  0  0  0  0
  132.2990  111.3820  126.7480 O   0  0  0  0  0  0  0  0  0  0  0  0
  132.1190  115.4690  130.0370 C   0  0  0  0  0  0  0  0  0  0  0  0
  131.4020  116.3090  130.9130 C   0  0  0  0  0  0  0  0  0  0  0  0
  130.2830  115.7370  131.7790 C   0  0  0  0  0  0  0  0  0  0  0  0
  130.3930  114.2070  131.9630 C   0  0  0  0  0  0  0  0  0  0  0  0
  129.0820  113.6280  132.4840 C   0  0  0  0  0  0  0  0  0  0  0  0
  127.9570  113.8570  131.4930 C   0  0  0  0  0  0  0  0  0  0  0  0
  128.1250  115.0580  130.5810 C   0  0  0  0  0  0  0  0  0  0  0  0
  128.8910  116.1810  131.2770 C   0  0  0  0  0  0  0  0  0  0  0  0
  126.5570  113.4870  131.9420 C   0  0  0  0  0  0  0  0  0  0  0  0
  127.2520  112.6460  130.9130 C   0  0  0  0  0  0  0  0  0  0  0  0
  129.3950  117.9670  134.9160 N   0  0  0  0  0  0  0  0  0  0  0  0
  128.7100  118.4900  135.9450 C   0  0  0  0  0  0  0  0  0  0  0  0
  128.2210  117.6300  136.9430 N   0  0  0  0  0  0  0  0  0  0  0  0
  127.1960  116.7040  136.4560 C   0  0  0  0  0  0  0  0  0  0  0  0
  126.8860  115.6660  137.5220 C   0  0  0  0  0  0  0  0  0  0  0  0
  126.5410  116.3520  138.8230 C   0  0  0  0  0  0  0  0  0  0  0  0
  126.3230  115.4130  139.7800 F   0  0  0  0  0  0  0  0  0  0  0  0
  125.3690  117.0250  138.6840 F   0  0  0  0  0  0  0  0  0  0  0  0
  127.6180  117.3010  139.2910 C   0  0  0  0  0  0  0  0  0  0  0  0
  127.9220  118.3180  138.2030 C   0  0  0  0  0  0  0  0  0  0  0  0
  128.5070  119.8110  136.0670 N   0  0  0  0  0  0  0  0  0  0  0  0
  128.7203  122.3479  136.3571 H   0  0  0  0  0  0  0  0  0  0  0  0
  129.5787  122.6628  134.8110 H   0  0  0  0  0  0  0  0  0  0  0  0
  127.8063  122.3710  134.8110 H   0  0  0  0  0  0  0  0  0  0  0  0
  130.1151  120.8364  133.2698 H   0  0  0  0  0  0  0  0  0  0  0  0
  130.7470  117.1730  133.1760 H   0  0  0  0  0  0  0  0  0  0  0  0
  133.0084  119.2528  130.1258 H   0  0  0  0  0  0  0  0  0  0  0  0
  134.2665  117.7153  128.6134 H   0  0  0  0  0  0  0  0  0  0  0  0
  134.5720  115.5990  127.8180 H   0  0  0  0  0  0  0  0  0  0  0  0
  134.7995  112.5835  126.9854 H   0  0  0  0  0  0  0  0  0  0  0  0
  134.3177  111.4921  128.3484 H   0  0  0  0  0  0  0  0  0  0  0  0
  132.0776  112.6829  128.3346 H   0  0  0  0  0  0  0  0  0  0  0  0
  132.5994  113.4153  126.7626 H   0  0  0  0  0  0  0  0  0  0  0  0
  132.5700  111.4730  125.8110 H   0  0  0  0  0  0  0  0  0  0  0  0
  131.8610  114.4012  129.9799 H   0  0  0  0  0  0  0  0  0  0  0  0
  130.4087  116.1639  132.7850 H   0  0  0  0  0  0  0  0  0  0  0  0
  130.6321  113.7437  130.9944 H   0  0  0  0  0  0  0  0  0  0  0  0
  131.1867  113.9963  132.6949 H   0  0  0  0  0  0  0  0  0  0  0  0
  129.2049  112.5469  132.6457 H   0  0  0  0  0  0  0  0  0  0  0  0
  128.8263  114.1313  133.4281 H   0  0  0  0  0  0  0  0  0  0  0  0
  128.6789  114.7503  129.6818 H   0  0  0  0  0  0  0  0  0  0  0  0
  127.1261  115.4331  130.3137 H   0  0  0  0  0  0  0  0  0  0  0  0
  129.0222  117.0098  130.5658 H   0  0  0  0  0  0  0  0  0  0  0  0
  128.3044  116.4855  132.1562 H   0  0  0  0  0  0  0  0  0  0  0  0
  126.3921  113.0905  132.9547 H   0  0  0  0  0  0  0  0  0  0  0  0
  125.5930  114.0147  131.9900 H   0  0  0  0  0  0  0  0  0  0  0  0
  127.5961  111.6339  131.1724 H   0  0  0  0  0  0  0  0  0  0  0  0
  127.0072  112.3038  129.8967 H   0  0  0  0  0  0  0  0  0  0  0  0
  126.2809  117.2659  136.2174 H   0  0  0  0  0  0  0  0  0  0  0  0
  127.5671  116.1959  135.5537 H   0  0  0  0  0  0  0  0  0  0  0  0
  126.0334  115.0520  137.1962 H   0  0  0  0  0  0  0  0  0  0  0  0
  127.7686  115.0269  137.6726 H   0  0  0  0  0  0  0  0  0  0  0  0
  127.2740  117.8257  140.1945 H   0  0  0  0  0  0  0  0  0  0  0  0
  128.5303  116.7294  139.5167 H   0  0  0  0  0  0  0  0  0  0  0  0
  127.0494  118.9729  138.0624 H   0  0  0  0  0  0  0  0  0  0  0  0
  128.7940  118.9178  138.5027 H   0  0  0  0  0  0  0  0  0  0  0  0
  1  2  1  0
  2  3  2  0
  3  4  1  0
  4  5  1  0
  5  6  1  0
  6  7  2  0
  6  8  1  0
  8  9  2  0
  9 10  1  0
 10 11  2  0
 11 12  1  0
 12 13  1  0
 13 14  2  0
 13 15  2  0
 13 16  1  0
 16 17  1  0
 17 18  1  0
 11 19  1  0
 19 20  2  0
 20 21  1  0
 21 22  1  0
 22 23  1  0
 23 24  1  0
 24 25  1  0
 25 26  1  0
 24 27  1  0
 27 28  1  0
  4 29  2  0
 29 30  1  0
 30 31  1  0
 31 32  1  0
 32 33  1  0
 33 34  1  0
 34 35  1  0
 34 36  1  0
 34 37  1  0
 37 38  1  0
 30 39  2  0
 39  2  1  0
 20  8  1  0
 26 21  1  0
 38 31  1  0
 28 24  1  0
  1 40  1  0
  1 41  1  0
  1 42  1  0
  3 43  1  0
  5 44  1  0
  9 45  1  0
 10 46  1  0
 12 47  1  0
 16 48  1  0
 16 49  1  0
 17 50  1  0
 17 51  1  0
 18 52  1  0
 19 53  1  0
 21 54  1  0
 22 55  1  0
 22 56  1  0
 23 57  1  0
 23 58  1  0
 25 59  1  0
 25 60  1  0
 26 61  1  0
 26 62  1  0
 27 63  1  0
 27 64  1  0
 28 65  1  0
 28 66  1  0
 32 67  1  0
 32 68  1  0
 33 69  1  0
 33 70  1  0
 37 71  1  0
 37 72  1  0
 38 73  1  0
 38 74  1  0
M  END
$$$$

     RDKit          3D

 74 78  0  0  0  0  0  0  0  0999 V2000
  129.1880  121.6450  134.3330 C   0  0  0  0  0  0  0  0  0  0  0  0
  129.3590  120.1570  134.3730 C   0  0  0  0  0  0  0  0  0  0  0  0
  130.0200  119.5080  133.3590 C   0  0  0  0  0  0  0  0  0  0  0  0
  130.1270  118.1460  133.4910 C   0  0  0  0  0  0  0  0  0  0  0  0
  130.7710  117.3210  132.5660 N   0  0  0  0  0  0  0  0  0  0  0  0
  130.2680  116.8090  131.3950 C   0  0  0  0  0  0  0  0  0  0  0  0
  129.1430  116.9620  130.9410 O   0  0  0  0  0  0  0  0  0  0  0  0
  131.2440  115.9780  130.6430 C   0  0  0  0  0  0  0  0  0  0  0  0
  132.3800  116.6310  130.1360 C   0  0  0  0  0  0  0  0  0  0  0  0
  133.3190  115.9230  129.3870 C   0  0  0  0  0  0  0  0  0  0  0  0
  133.1270  114.5680  129.1500 C   0  0  0  0  0  0  0  0  0  0  0  0
  134.0590  113.8570  128.3270 N   0  0  0  0  0  0  0  0  0  0  0  0
  135.2730  113.0230  129.1860 S   0  0  0  0  0  6  0  0  0  0  0  0
  136.3040  112.5680  128.2780 O   0  0  0  0  0  0  0  0  0  0  0  0
  134.5670  112.1160  130.0650 O   0  0  0  0  0  0  0  0  0  0  0  0
  135.9580  114.3420  130.1690 C   0  0  0  0  0  0  0  0  0  0  0  0
  136.7400  113.8050  131.3500 C   0  0  0  0  0  0  0  0  0  0  0  0
  136.8500  112.3860  131.2990 O   0  0  0  0  0  0  0  0  0  0  0  0
  131.9860  113.9180  129.6320 C   0  0  0  0  0  0  0  0  0  0  0  0
  131.0290  114.6040  130.4070 C   0  0  0  0  0  0  0  0  0  0  0  0
  129.7960  113.8700  130.9280 C   0  0  0  0  0  0  0  0  0  0  0  0
  128.4800  114.4080  130.3200 C   0  0  0  0  0  0  0  0  0  0  0  0
  127.2780  113.9380  131.1320 C   0  0  0  0  0  0  0  0  0  0  0  0
  127.3400  114.4720  132.5510 C   0  0  0  0  0  0  0  0  0  0  0  0
  128.7330  114.7730  133.0740 C   0  0  0  0  0  0  0  0  0  0  0  0
  129.7690  113.8260  132.4720 C   0  0  0  0  0  0  0  0  0  0  0  0
  126.3020  113.9550  133.5280 C   0  0  0  0  0  0  0  0  0  0  0  0
  126.2160  115.3680  133.0320 C   0  0  0  0  0  0  0  0  0  0  0  0
  129.6230  117.4740  134.5410 N   0  0  0  0  0  0  0  0  0  0  0  0
  128.9860  118.1700  135.4960 C   0  0  0  0  0  0  0  0  0  0  0  0
  128.4800  117.4830  136.6130 N   0  0  0  0  0  0  0  0  0  0  0  0
  127.5390  116.4180  136.2600 C   0  0  0  0  0  0  0  0  0  0  0  0
  127.2160  115.5820  137.4870 C   0  0  0  0  0  0  0  0  0  0  0  0
  126.7520  116.4770  138.6120 C   0  0  0  0  0  0  0  0  0  0  0  0
  126.5240  115.7230  139.7180 F   0  0  0  0  0  0  0  0  0  0  0  0
  125.5580  117.0360  138.2850 F   0  0  0  0  0  0  0  0  0  0  0  0
  127.7460  117.5640  138.9460 C   0  0  0  0  0  0  0  0  0  0  0  0
  128.0650  118.3760  137.7000 C   0  0  0  0  0  0  0  0  0  0  0  0
  128.8470  119.5030  135.4340 N   0  0  0  0  0  0  0  0  0  0  0  0
  129.1430  122.0366  135.3599 H   0  0  0  0  0  0  0  0  0  0  0  0
  130.0400  122.0979  133.8048 H   0  0  0  0  0  0  0  0  0  0  0  0
  128.2555  121.8928  133.8048 H   0  0  0  0  0  0  0  0  0  0  0  0
  130.4375  120.0461  132.4952 H   0  0  0  0  0  0  0  0  0  0  0  0
  131.7120  117.0820  132.8500 H   0  0  0  0  0  0  0  0  0  0  0  0
  132.5290  117.7034  130.3304 H   0  0  0  0  0  0  0  0  0  0  0  0
  134.2065  116.4345  128.9862 H   0  0  0  0  0  0  0  0  0  0  0  0
  134.5380  114.4870  127.6760 H   0  0  0  0  0  0  0  0  0  0  0  0
  136.6294  114.9451  129.5401 H   0  0  0  0  0  0  0  0  0  0  0  0
  135.1281  114.9531  130.5534 H   0  0  0  0  0  0  0  0  0  0  0  0
  137.7491  114.2427  131.3398 H   0  0  0  0  0  0  0  0  0  0  0  0
  136.2053  114.0777  132.2718 H   0  0  0  0  0  0  0  0  0  0  0  0
  137.7250  112.1630  130.9170 H   0  0  0  0  0  0  0  0  0  0  0  0
  131.8329  112.8532  129.4023 H   0  0  0  0  0  0  0  0  0  0  0  0
  129.8752  112.8285  130.5831 H   0  0  0  0  0  0  0  0  0  0  0  0
  128.5065  115.5077  130.3180 H   0  0  0  0  0  0  0  0  0  0  0  0
  128.3835  114.0261  129.2930 H   0  0  0  0  0  0  0  0  0  0  0  0
  126.3561  114.2980  130.6518 H   0  0  0  0  0  0  0  0  0  0  0  0
  127.2879  112.8387  131.1698 H   0  0  0  0  0  0  0  0  0  0  0  0
  128.9983  115.8078  132.8116 H   0  0  0  0  0  0  0  0  0  0  0  0
  128.7308  114.6363  134.1655 H   0  0  0  0  0  0  0  0  0  0  0  0
  130.7633  114.1076  132.8489 H   0  0  0  0  0  0  0  0  0  0  0  0
  129.4942  112.8031  132.7690 H   0  0  0  0  0  0  0  0  0  0  0  0
  125.5608  113.2116  133.1993 H   0  0  0  0  0  0  0  0  0  0  0  0
  126.3383  113.4819  134.5204 H   0  0  0  0  0  0  0  0  0  0  0  0
  125.4117  115.6590  132.3403 H   0  0  0  0  0  0  0  0  0  0  0  0
  126.1633  116.3565  133.5116 H   0  0  0  0  0  0  0  0  0  0  0  0
  126.6128  116.8649  135.8696 H   0  0  0  0  0  0  0  0  0  0  0  0
  127.9942  115.7735  135.4936 H   0  0  0  0  0  0  0  0  0  0  0  0
  126.4198  114.8643  137.2400 H   0  0  0  0  0  0  0  0  0  0  0  0
  128.1196  115.0408  137.8043 H   0  0  0  0  0  0  0  0  0  0  0  0
  127.3180  118.2262  139.7130 H   0  0  0  0  0  0  0  0  0  0  0  0
  128.6708  117.1045  139.3248 H   0  0  0  0  0  0  0  0  0  0  0  0
  127.1698  118.9354  137.3905 H   0  0  0  0  0  0  0  0  0  0  0  0
  128.8829  119.0764  137.9246 H   0  0  0  0  0  0  0  0  0  0  0  0
  1  2  1  0
  2  3  2  0
  3  4  1  0
  4  5  1  0
  5  6  1  0
  6  7  2  0
  6  8  1  0
  8  9  2  0
  9 10  1  0
 10 11  2  0
 11 12  1  0
 12 13  1  0
 13 14  2  0
 13 15  2  0
 13 16  1  0
 16 17  1  0
 17 18  1  0
 11 19  1  0
 19 20  2  0
 20 21  1  0
 21 22  1  0
 22 23  1  0
 23 24  1  0
 24 25  1  0
 25 26  1  0
 24 27  1  0
 27 28  1  0
  4 29  2  0
 29 30  1  0
 30 31  1  0
 31 32  1  0
 32 33  1  0
 33 34  1  0
 34 35  1  0
 34 36  1  0
 34 37  1  0
 37 38  1  0
 30 39  2  0
 39  2  1  0
 20  8  1  0
 26 21  1  0
 38 31  1  0
 28 24  1  0
  1 40  1  0
  1 41  1  0
  1 42  1  0
  3 43  1  0
  5 44  1  0
  9 45  1  0
 10 46  1  0
 12 47  1  0
 16 48  1  0
 16 49  1  0
 17 50  1  0
 17 51  1  0
 18 52  1  0
 19 53  1  0
 21 54  1  0
 22 55  1  0
 22 56  1  0
 23 57  1  0
 23 58  1  0
 25 59  1  0
 25 60  1  0
 26 61  1  0
 26 62  1  0
 27 63  1  0
 27 64  1  0
 28 65  1  0
 28 66  1  0
 32 67  1  0
 32 68  1  0
 33 69  1  0
 33 70  1  0
 37 71  1  0
 37 72  1  0
 38 73  1  0
 38 74  1  0
M  END
$$$$

     RDKit          3D

 74 78  0  0  0  0  0  0  0  0999 V2000
  129.0400  122.1560  134.3870 C   0  0  0  0  0  0  0  0  0  0  0  0
  129.1740  120.6630  134.3840 C   0  0  0  0  0  0  0  0  0  0  0  0
  129.9240  120.0370  133.4180 C   0  0  0  0  0  0  0  0  0  0  0  0
  129.9880  118.6690  133.5040 C   0  0  0  0  0  0  0  0  0  0  0  0
  130.7070  117.8650  132.6170 N   0  0  0  0  0  0  0  0  0  0  0  0
  130.2260  117.1260  131.5630 C   0  0  0  0  0  0  0  0  0  0  0  0
  129.0620  117.0150  131.2050 O   0  0  0  0  0  0  0  0  0  0  0  0
  131.2850  116.3990  130.8170 C   0  0  0  0  0  0  0  0  0  0  0  0
  132.3710  117.1560  130.3470 C   0  0  0  0  0  0  0  0  0  0  0  0
  133.3820  116.5480  129.6060 C   0  0  0  0  0  0  0  0  0  0  0  0
  133.3120  115.1860  129.3380 C   0  0  0  0  0  0  0  0  0  0  0  0
  134.3180  114.5740  128.5230 N   0  0  0  0  0  0  0  0  0  0  0  0
  134.2110  112.8760  128.4150 S   0  0  0  0  0  6  0  0  0  0  0  0
  134.1410  112.4680  127.0280 O   0  0  0  0  0  0  0  0  0  0  0  0
  133.2050  112.4940  129.3810 O   0  0  0  0  0  0  0  0  0  0  0  0
  135.8080  112.3960  129.0430 C   0  0  0  0  0  0  0  0  0  0  0  0
  135.8750  112.5310  130.5500 C   0  0  0  0  0  0  0  0  0  0  0  0
  137.2090  112.7610  130.9920 O   0  0  0  0  0  0  0  0  0  0  0  0
  132.2220  114.4310  129.7830 C   0  0  0  0  0  0  0  0  0  0  0  0
  131.1940  115.0160  130.5500 C   0  0  0  0  0  0  0  0  0  0  0  0
  130.0180  114.1680  131.0300 C   0  0  0  0  0  0  0  0  0  0  0  0
  128.6850  114.5600  130.3530 C   0  0  0  0  0  0  0  0  0  0  0  0
  127.4990  113.9830  131.1200 C   0  0  0  0  0  0  0  0  0  0  0  0
  127.4410  114.5420  132.5280 C   0  0  0  0  0  0  0  0  0  0  0  0
  128.7700  114.9910  133.1070 C   0  0  0  0  0  0  0  0  0  0  0  0
  129.9230  114.1460  132.5720 C   0  0  0  0  0  0  0  0  0  0  0  0
  126.4160  113.9370  133.4680 C   0  0  0  0  0  0  0  0  0  0  0  0
  126.2110  115.3260  132.9410 C   0  0  0  0  0  0  0  0  0  0  0  0
  129.3610  117.9700  134.4670 N   0  0  0  0  0  0  0  0  0  0  0  0
  128.6430  118.6440  135.3790 C   0  0  0  0  0  0  0  0  0  0  0  0
  128.0080  117.9280  136.4070 N   0  0  0  0  0  0  0  0  0  0  0  0
  128.6530  118.0930  137.7110 C   0  0  0  0  0  0  0  0  0  0  0  0
  127.7870  117.4830  138.8010 C   0  0  0  0  0  0  0  0  0  0  0  0
  127.4480  116.0530  138.4490 C   0  0  0  0  0  0  0  0  0  0  0  0
  126.6270  115.5410  139.4010 F   0  0  0  0  0  0  0  0  0  0  0  0
  128.5780  115.2990  138.4810 F   0  0  0  0  0  0  0  0  0  0  0  0
  126.7880  115.9220  137.0970 C   0  0  0  0  0  0  0  0  0  0  0  0
  127.6650  116.5530  136.0280 C   0  0  0  0  0  0  0  0  0  0  0  0
  128.5390  119.9810  135.3570 N   0  0  0  0  0  0  0  0  0  0  0  0
  129.0074  122.5191  135.4248 H   0  0  0  0  0  0  0  0  0  0  0  0
  129.9017  122.6025  133.8692 H   0  0  0  0  0  0  0  0  0  0  0  0
  128.1126  122.4419  133.8692 H   0  0  0  0  0  0  0  0  0  0  0  0
  130.4409  120.5975  132.6251 H   0  0  0  0  0  0  0  0  0  0  0  0
  131.6950  117.8380  132.8350 H   0  0  0  0  0  0  0  0  0  0  0  0
  132.4233  118.2329  130.5649 H   0  0  0  0  0  0  0  0  0  0  0  0
  134.2303  117.1421  129.2354 H   0  0  0  0  0  0  0  0  0  0  0  0
  135.2590  114.7900  128.8680 H   0  0  0  0  0  0  0  0  0  0  0  0
  135.9996  111.3480  128.7691 H   0  0  0  0  0  0  0  0  0  0  0  0
  136.5660  113.0605  128.6028 H   0  0  0  0  0  0  0  0  0  0  0  0
  135.2438  113.3761  130.8621 H   0  0  0  0  0  0  0  0  0  0  0  0
  135.5188  111.5916  130.9980 H   0  0  0  0  0  0  0  0  0  0  0  0
  137.8190  112.3760  130.3280 H   0  0  0  0  0  0  0  0  0  0  0  0
  132.1659  113.3619  129.5301 H   0  0  0  0  0  0  0  0  0  0  0  0
  130.2182  113.1346  130.7105 H   0  0  0  0  0  0  0  0  0  0  0  0
  128.6008  115.6565  130.3299 H   0  0  0  0  0  0  0  0  0  0  0  0
  128.6755  114.1542  129.3306 H   0  0  0  0  0  0  0  0  0  0  0  0
  126.5690  114.2404  130.5918 H   0  0  0  0  0  0  0  0  0  0  0  0
  127.6174  112.8910  131.1802 H   0  0  0  0  0  0  0  0  0  0  0  0
  128.9414  116.0433  132.8362 H   0  0  0  0  0  0  0  0  0  0  0  0
  128.7303  114.8713  134.1997 H   0  0  0  0  0  0  0  0  0  0  0  0
  130.8648  114.5337  132.9875 H   0  0  0  0  0  0  0  0  0  0  0  0
  129.7395  113.1052  132.8771 H   0  0  0  0  0  0  0  0  0  0  0  0
  125.7696  113.1173  133.1214 H   0  0  0  0  0  0  0  0  0  0  0  0
  126.4538  113.4852  134.4702 H   0  0  0  0  0  0  0  0  0  0  0  0
  125.4143  115.5232  132.2087 H   0  0  0  0  0  0  0  0  0  0  0  0
  126.0366  116.3111  133.3983 H   0  0  0  0  0  0  0  0  0  0  0  0
  129.6315  117.5906  137.6994 H   0  0  0  0  0  0  0  0  0  0  0  0
  128.7865  119.1658  137.9143 H   0  0  0  0  0  0  0  0  0  0  0  0
  128.3335  117.5039  139.7554 H   0  0  0  0  0  0  0  0  0  0  0  0
  126.8572  118.0636  138.8920 H   0  0  0  0  0  0  0  0  0  0  0  0
  126.6403  114.8569  136.8652 H   0  0  0  0  0  0  0  0  0  0  0  0
  125.8163  116.4371  137.1177 H   0  0  0  0  0  0  0  0  0  0  0  0
  128.5878  115.9641  135.9197 H   0  0  0  0  0  0  0  0  0  0  0  0
  127.1173  116.5675  135.0742 H   0  0  0  0  0  0  0  0  0  0  0  0
  1  2  1  0
  2  3  2  0
  3  4  1  0
  4  5  1  0
  5  6  1  0
  6  7  2  0
  6  8  1  0
  8  9  2  0
  9 10  1  0
 10 11  2  0
 11 12  1  0
 12 13  1  0
 13 14  2  0
 13 15  2  0
 13 16  1  0
 16 17  1  0
 17 18  1  0
 11 19  1  0
 19 20  2  0
 20 21  1  0
 21 22  1  0
 22 23  1  0
 23 24  1  0
 24 25  1  0
 25 26  1  0
 24 27  1  0
 27 28  1  0
  4 29  2  0
 29 30  1  0
 30 31  1  0
 31 32  1  0
 32 33  1  0
 33 34  1  0
 34 35  1  0
 34 36  1  0
 34 37  1  0
 37 38  1  0
 30 39  2  0
 39  2  1  0
 20  8  1  0
 26 21  1  0
 38 31  1  0
 28 24  1  0
  1 40  1  0
  1 41  1  0
  1 42  1  0
  3 43  1  0
  5 44  1  0
  9 45  1  0
 10 46  1  0
 12 47  1  0
 16 48  1  0
 16 49  1  0
 17 50  1  0
 17 51  1  0
 18 52  1  0
 19 53  1  0
 21 54  1  0
 22 55  1  0
 22 56  1  0
 23 57  1  0
 23 58  1  0
 25 59  1  0
 25 60  1  0
 26 61  1  0
 26 62  1  0
 27 63  1  0
 27 64  1  0
 28 65  1  0
 28 66  1  0
 32 67  1  0
 32 68  1  0
 33 69  1  0
 33 70  1  0
 37 71  1  0
 37 72  1  0
 38 73  1  0
 38 74  1  0
M  END
$$$$

     RDKit          3D

 74 78  0  0  0  0  0  0  0  0999 V2000
  128.9280  122.2010  134.1340 C   0  0  0  0  0  0  0  0  0  0  0  0
  129.1340  120.7190  134.2150 C   0  0  0  0  0  0  0  0  0  0  0  0
  129.9120  120.0760  133.2830 C   0  0  0  0  0  0  0  0  0  0  0  0
  130.0430  118.7200  133.4470 C   0  0  0  0  0  0  0  0  0  0  0  0
  130.8000  117.9020  132.6040 N   0  0  0  0  0  0  0  0  0  0  0  0
  130.3720  117.1820  131.5160 C   0  0  0  0  0  0  0  0  0  0  0  0
  129.2320  117.1020  131.0800 O   0  0  0  0  0  0  0  0  0  0  0  0
  131.4590  116.4310  130.8360 C   0  0  0  0  0  0  0  0  0  0  0  0
  132.5430  117.1800  130.3480 C   0  0  0  0  0  0  0  0  0  0  0  0
  133.5820  116.5480  129.6660 C   0  0  0  0  0  0  0  0  0  0  0  0
  133.5400  115.1720  129.4760 C   0  0  0  0  0  0  0  0  0  0  0  0
  134.5750  114.5330  128.7200 N   0  0  0  0  0  0  0  0  0  0  0  0
  134.2810  112.8940  128.3560 S   0  0  0  0  0  6  0  0  0  0  0  0
  133.6220  112.2450  129.4690 O   0  0  0  0  0  0  0  0  0  0  0  0
  135.5210  112.3960  127.8010 O   0  0  0  0  0  0  0  0  0  0  0  0
  133.0950  113.0480  127.0360 C   0  0  0  0  0  0  0  0  0  0  0  0
  131.8150  112.3020  127.3500 C   0  0  0  0  0  0  0  0  0  0  0  0
  131.6670  111.1520  126.5220 O   0  0  0  0  0  0  0  0  0  0  0  0
  132.4520  114.4250  129.9390 C   0  0  0  0  0  0  0  0  0  0  0  0
  131.3970  115.0340  130.6480 C   0  0  0  0  0  0  0  0  0  0  0  0
  130.2250  114.1950  131.1490 C   0  0  0  0  0  0  0  0  0  0  0  0
  128.9090  114.4980  130.3960 C   0  0  0  0  0  0  0  0  0  0  0  0
  127.7090  113.9500  131.1610 C   0  0  0  0  0  0  0  0  0  0  0  0
  127.5840  114.6140  132.5190 C   0  0  0  0  0  0  0  0  0  0  0  0
  128.8790  115.1420  133.1090 C   0  0  0  0  0  0  0  0  0  0  0  0
  130.0720  114.2890  132.6830 C   0  0  0  0  0  0  0  0  0  0  0  0
  126.5390  114.0560  133.4650 C   0  0  0  0  0  0  0  0  0  0  0  0
  126.3200  115.3940  132.8240 C   0  0  0  0  0  0  0  0  0  0  0  0
  129.4530  118.0470  134.4500 N   0  0  0  0  0  0  0  0  0  0  0  0
  128.7030  118.7360  135.3250 C   0  0  0  0  0  0  0  0  0  0  0  0
  128.1050  118.0500  136.3950 N   0  0  0  0  0  0  0  0  0  0  0  0
  128.7970  118.2510  137.6700 C   0  0  0  0  0  0  0  0  0  0  0  0
  127.9700  117.6730  138.8070 C   0  0  0  0  0  0  0  0  0  0  0  0
  127.6180  116.2340  138.5070 C   0  0  0  0  0  0  0  0  0  0  0  0
  126.8320  115.7500  139.5020 F   0  0  0  0  0  0  0  0  0  0  0  0
  128.7480  115.4790  138.5190 F   0  0  0  0  0  0  0  0  0  0  0  0
  126.9100  116.0660  137.1840 C   0  0  0  0  0  0  0  0  0  0  0  0
  127.7490  116.6660  136.0670 C   0  0  0  0  0  0  0  0  0  0  0  0
  128.5340  120.0640  135.2280 N   0  0  0  0  0  0  0  0  0  0  0  0
  128.8699  122.6192  135.1498 H   0  0  0  0  0  0  0  0  0  0  0  0
  129.7710  122.6595  133.5964 H   0  0  0  0  0  0  0  0  0  0  0  0
  127.9919  122.4122  133.5964 H   0  0  0  0  0  0  0  0  0  0  0  0
  130.3994  120.6145  132.4569 H   0  0  0  0  0  0  0  0  0  0  0  0
  131.7700  117.8490  132.8870 H   0  0  0  0  0  0  0  0  0  0  0  0
  132.5720  118.2684  130.5045 H   0  0  0  0  0  0  0  0  0  0  0  0
  134.4292  117.1346  129.2810 H   0  0  0  0  0  0  0  0  0  0  0  0
  135.4740  114.5700  129.2120 H   0  0  0  0  0  0  0  0  0  0  0  0
  132.8611  114.1126  126.8880 H   0  0  0  0  0  0  0  0  0  0  0  0
  133.5334  112.6131  126.1257 H   0  0  0  0  0  0  0  0  0  0  0  0
  131.8348  111.9847  128.4030 H   0  0  0  0  0  0  0  0  0  0  0  0
  130.9664  112.9759  127.1613 H   0  0  0  0  0  0  0  0  0  0  0  0
  132.2590  110.4520  126.8670 H   0  0  0  0  0  0  0  0  0  0  0  0
  132.4191  113.3425  129.7463 H   0  0  0  0  0  0  0  0  0  0  0  0
  130.4619  113.1460  130.9177 H   0  0  0  0  0  0  0  0  0  0  0  0
  128.7994  115.5869  130.2852 H   0  0  0  0  0  0  0  0  0  0  0  0
  128.9484  114.0147  129.4086 H   0  0  0  0  0  0  0  0  0  0  0  0
  126.7941  114.1413  130.5810 H   0  0  0  0  0  0  0  0  0  0  0  0
  127.8506  112.8693  131.3097 H   0  0  0  0  0  0  0  0  0  0  0  0
  129.0353  116.1745  132.7634 H   0  0  0  0  0  0  0  0  0  0  0  0
  128.8007  115.1059  134.2056 H   0  0  0  0  0  0  0  0  0  0  0  0
  130.9879  114.7325  133.1008 H   0  0  0  0  0  0  0  0  0  0  0  0
  129.9018  113.2702  133.0613 H   0  0  0  0  0  0  0  0  0  0  0  0
  125.9267  113.1945  133.1602 H   0  0  0  0  0  0  0  0  0  0  0  0
  126.5494  113.6843  134.5002 H   0  0  0  0  0  0  0  0  0  0  0  0
  125.5475  115.5121  132.0499 H   0  0  0  0  0  0  0  0  0  0  0  0
  126.1039  116.4064  133.1960 H   0  0  0  0  0  0  0  0  0  0  0  0
  129.7742  117.7470  137.6375 H   0  0  0  0  0  0  0  0  0  0  0  0
  128.9386  119.3288  137.8381 H   0  0  0  0  0  0  0  0  0  0  0  0
  128.5502  117.7196  139.7404 H   0  0  0  0  0  0  0  0  0  0  0  0
  127.0444  118.2574  138.9151 H   0  0  0  0  0  0  0  0  0  0  0  0
  126.7538  114.9950  136.9876 H   0  0  0  0  0  0  0  0  0  0  0  0
  125.9397  116.5825  137.2249 H   0  0  0  0  0  0  0  0  0  0  0  0
  128.6673  116.0734  135.9427 H   0  0  0  0  0  0  0  0  0  0  0  0
  127.1680  116.6543  135.1330 H   0  0  0  0  0  0  0  0  0  0  0  0
  1  2  1  0
  2  3  2  0
  3  4  1  0
  4  5  1  0
  5  6  1  0
  6  7  2  0
  6  8  1  0
  8  9  2  0
  9 10  1  0
 10 11  2  0
 11 12  1  0
 12 13  1  0
 13 14  2  0
 13 15  2  0
 13 16  1  0
 16 17  1  0
 17 18  1  0
 11 19  1  0
 19 20  2  0
 20 21  1  0
 21 22  1  0
 22 23  1  0
 23 24  1  0
 24 25  1  0
 25 26  1  0
 24 27  1  0
 27 28  1  0
  4 29  2  0
 29 30  1  0
 30 31  1  0
 31 32  1  0
 32 33  1  0
 33 34  1  0
 34 35  1  0
 34 36  1  0
 34 37  1  0
 37 38  1  0
 30 39  2  0
 39  2  1  0
 20  8  1  0
 26 21  1  0
 38 31  1  0
 28 24  1  0
  1 40  1  0
  1 41  1  0
  1 42  1  0
  3 43  1  0
  5 44  1  0
  9 45  1  0
 10 46  1  0
 12 47  1  0
 16 48  1  0
 16 49  1  0
 17 50  1  0
 17 51  1  0
 18 52  1  0
 19 53  1  0
 21 54  1  0
 22 55  1  0
 22 56  1  0
 23 57  1  0
 23 58  1  0
 25 59  1  0
 25 60  1  0
 26 61  1  0
 26 62  1  0
 27 63  1  0
 27 64  1  0
 28 65  1  0
 28 66  1  0
 32 67  1  0
 32 68  1  0
 33 69  1  0
 33 70  1  0
 37 71  1  0
 37 72  1  0
 38 73  1  0
 38 74  1  0
M  END
$$$$

