
     RDKit          3D

 74 77  0  0  0  0  0  0  0  0999 V2000
  128.1460  115.9270  138.5760 C   0  0  0  0  0  0  0  0  0  0  0  0
  128.4570  116.5040  137.1930 C   0  0  0  0  0  0  0  0  0  0  0  0
  128.8190  115.3470  136.2470 C   0  0  0  0  0  0  0  0  0  0  0  0
  127.2440  117.2470  136.6250 C   0  0  0  0  0  0  0  0  0  0  0  0
  129.6320  117.4020  137.2150 N   0  0  0  0  0  0  0  0  0  0  0  0
  129.4890  119.0660  137.4850 S   0  0  0  0  0  6  0  0  0  0  0  0
  128.2330  119.3230  138.1540 O   0  0  0  0  0  0  0  0  0  0  0  0
  130.7510  119.5340  138.0200 O   0  0  0  0  0  0  0  0  0  0  0  0
  129.3350  119.6900  135.8160 C   0  0  0  0  0  0  0  0  0  0  0  0
  128.7160  120.9030  135.5810 C   0  0  0  0  0  0  0  0  0  0  0  0
  128.6800  121.3350  134.2630 C   0  0  0  0  0  0  0  0  0  0  0  0
  129.2630  120.5500  133.2640 C   0  0  0  0  0  0  0  0  0  0  0  0
  129.8770  119.3480  133.6050 C   0  0  0  0  0  0  0  0  0  0  0  0
  130.4860  118.4990  132.6850 N   0  0  0  0  0  0  0  0  0  0  0  0
  131.5170  118.7560  131.8030 C   0  0  0  0  0  0  0  0  0  0  0  0
  132.0880  119.8310  131.6920 O   0  0  0  0  0  0  0  0  0  0  0  0
  131.8620  117.5400  130.9690 C   0  0  0  0  0  0  0  0  0  0  0  0
  132.9670  117.7280  130.1720 N   0  0  0  0  0  0  0  0  0  0  0  0
  133.3520  116.6490  129.4540 C   0  0  0  0  0  0  0  0  0  0  0  0
  132.7050  115.4220  129.5140 C   0  0  0  0  0  0  0  0  0  0  0  0
  133.0860  114.2920  128.7900 N   0  0  0  0  0  0  0  0  0  0  0  0
  134.2770  113.5180  129.2530 C   0  0  0  0  0  0  0  0  0  0  0  0
  133.7520  112.5260  130.3160 C   0  0  0  0  0  0  0  0  0  0  0  0
  135.3390  114.4120  129.9090 C   0  0  0  0  0  0  0  0  0  0  0  0
  134.8880  112.7020  128.0870 C   0  0  0  0  0  0  0  0  0  0  0  0
  134.0480  112.7660  126.9320 O   0  0  0  0  0  0  0  0  0  0  0  0
  131.6070  115.2640  130.2770 N   0  0  0  0  0  0  0  0  0  0  0  0
  131.1610  116.3200  131.0200 C   0  0  0  0  0  0  0  0  0  0  0  0
  129.9860  116.1210  131.7660 N   0  0  0  0  0  0  0  0  0  0  0  0
  128.7960  116.1300  130.8840 C   0  0  0  0  0  0  0  0  0  0  0  0
  127.5850  115.5020  131.5830 C   0  0  0  0  0  0  0  0  0  0  0  0
  127.8640  114.0540  131.9470 C   0  0  0  0  0  0  0  0  0  0  0  0
  129.3270  113.7570  132.2360 C   0  0  0  0  0  0  0  0  0  0  0  0
  130.0490  115.0120  132.7380 C   0  0  0  0  0  0  0  0  0  0  0  0
  127.0440  112.9630  131.2890 C   0  0  0  0  0  0  0  0  0  0  0  0
  126.8010  113.3080  132.7270 C   0  0  0  0  0  0  0  0  0  0  0  0
  129.9340  118.9000  134.8750 N   0  0  0  0  0  0  0  0  0  0  0  0
  128.5161  116.6137  139.3515 H   0  0  0  0  0  0  0  0  0  0  0  0
  127.0585  115.8024  138.6853 H   0  0  0  0  0  0  0  0  0  0  0  0
  128.6398  114.9501  138.6853 H   0  0  0  0  0  0  0  0  0  0  0  0
  129.0958  114.4622  136.8390 H   0  0  0  0  0  0  0  0  0  0  0  0
  127.9529  115.1074  135.6126 H   0  0  0  0  0  0  0  0  0  0  0  0
  129.6672  115.6438  135.6126 H   0  0  0  0  0  0  0  0  0  0  0  0
  126.6257  117.6257  137.4522 H   0  0  0  0  0  0  0  0  0  0  0  0
  127.5867  118.0903  136.0075 H   0  0  0  0  0  0  0  0  0  0  0  0
  126.6485  116.5585  136.0075 H   0  0  0  0  0  0  0  0  0  0  0  0
  130.3590  117.2210  136.5150 H   0  0  0  0  0  0  0  0  0  0  0  0
  128.2749  121.4951  136.3963 H   0  0  0  0  0  0  0  0  0  0  0  0
  128.1960  122.2887  134.0059 H   0  0  0  0  0  0  0  0  0  0  0  0
  129.2368  120.8800  132.2150 H   0  0  0  0  0  0  0  0  0  0  0  0
  130.0950  117.5620  132.6480 H   0  0  0  0  0  0  0  0  0  0  0  0
  134.2221  116.7483  128.7884 H   0  0  0  0  0  0  0  0  0  0  0  0
  132.2590  113.6960  128.9000 H   0  0  0  0  0  0  0  0  0  0  0  0
  133.9611  112.9210  131.3211 H   0  0  0  0  0  0  0  0  0  0  0  0
  132.6669  112.3957  130.1916 H   0  0  0  0  0  0  0  0  0  0  0  0
  134.2545  111.5554  130.1916 H   0  0  0  0  0  0  0  0  0  0  0  0
  135.2536  114.3401  131.0033 H   0  0  0  0  0  0  0  0  0  0  0  0
  136.3405  114.0811  129.5968 H   0  0  0  0  0  0  0  0  0  0  0  0
  135.1837  115.4553  129.5968 H   0  0  0  0  0  0  0  0  0  0  0  0
  135.8772  113.1135  127.8376 H   0  0  0  0  0  0  0  0  0  0  0  0
  134.9800  111.6515  128.4001 H   0  0  0  0  0  0  0  0  0  0  0  0
  134.1640  111.9090  126.4740 H   0  0  0  0  0  0  0  0  0  0  0  0
  128.5563  117.1693  130.6150 H   0  0  0  0  0  0  0  0  0  0  0  0
  129.0242  115.5400  129.9841 H   0  0  0  0  0  0  0  0  0  0  0  0
  127.3639  116.0683  132.4998 H   0  0  0  0  0  0  0  0  0  0  0  0
  126.7258  115.5341  130.8969 H   0  0  0  0  0  0  0  0  0  0  0  0
  129.3906  112.9727  133.0047 H   0  0  0  0  0  0  0  0  0  0  0  0
  129.8088  113.4218  131.3057 H   0  0  0  0  0  0  0  0  0  0  0  0
  129.5794  115.3382  133.6778 H   0  0  0  0  0  0  0  0  0  0  0  0
  131.1080  114.7543  132.8864 H   0  0  0  0  0  0  0  0  0  0  0  0
  126.2940  113.2234  130.5276 H   0  0  0  0  0  0  0  0  0  0  0  0
  127.2799  112.0381  130.7423 H   0  0  0  0  0  0  0  0  0  0  0  0
  125.8729  113.8211  133.0192 H   0  0  0  0  0  0  0  0  0  0  0  0
  126.7853  112.7401  133.6690 H   0  0  0  0  0  0  0  0  0  0  0  0
  1  2  1  0
  2  3  1  0
  2  4  1  0
  2  5  1  0
  5  6  1  0
  6  7  2  0
  6  8  2  0
  6  9  1  0
  9 10  2  0
 10 11  1  0
 11 12  2  0
 12 13  1  0
 13 14  1  0
 14 15  1  0
 15 16  2  0
 15 17  1  0
 17 18  2  0
 18 19  1  0
 19 20  2  0
 20 21  1  0
 21 22  1  0
 22 23  1  0
 22 24  1  0
 22 25  1  0
 25 26  1  0
 20 27  1  0
 27 28  2  0
 28 29  1  0
 29 30  1  0
 30 31  1  0
 31 32  1  0
 32 33  1  0
 33 34  1  0
 32 35  1  0
 35 36  1  0
 13 37  2  0
 37  9  1  0
 28 17  1  0
 34 29  1  0
 36 32  1  0
  1 38  1  0
  1 39  1  0
  1 40  1  0
  3 41  1  0
  3 42  1  0
  3 43  1  0
  4 44  1  0
  4 45  1  0
  4 46  1  0
  5 47  1  0
 10 48  1  0
 11 49  1  0
 12 50  1  0
 14 51  1  0
 19 52  1  0
 21 53  1  0
 23 54  1  0
 23 55  1  0
 23 56  1  0
 24 57  1  0
 24 58  1  0
 24 59  1  0
 25 60  1  0
 25 61  1  0
 26 62  1  0
 30 63  1  0
 30 64  1  0
 31 65  1  0
 31 66  1  0
 33 67  1  0
 33 68  1  0
 34 69  1  0
 34 70  1  0
 35 71  1  0
 35 72  1  0
 36 73  1  0
 36 74  1  0
M  END
$$$$

     RDKit          3D

 74 77  0  0  0  0  0  0  0  0999 V2000
  128.9970  115.4560  136.3010 C   0  0  0  0  0  0  0  0  0  0  0  0
  127.7740  116.2240  136.8100 C   0  0  0  0  0  0  0  0  0  0  0  0
  126.5390  115.7660  136.0160 C   0  0  0  0  0  0  0  0  0  0  0  0
  127.5350  115.9500  138.2980 C   0  0  0  0  0  0  0  0  0  0  0  0
  127.8960  117.6800  136.5800 N   0  0  0  0  0  0  0  0  0  0  0  0
  129.0510  118.6240  137.3770 S   0  0  0  0  0  6  0  0  0  0  0  0
  128.3700  119.6240  138.1700 O   0  0  0  0  0  0  0  0  0  0  0  0
  130.0310  117.7270  137.9540 O   0  0  0  0  0  0  0  0  0  0  0  0
  129.8260  119.4770  136.0080 C   0  0  0  0  0  0  0  0  0  0  0  0
  130.0560  120.8380  136.0760 C   0  0  0  0  0  0  0  0  0  0  0  0
  130.7030  121.4120  134.9920 C   0  0  0  0  0  0  0  0  0  0  0  0
  131.0910  120.6080  133.9160 C   0  0  0  0  0  0  0  0  0  0  0  0
  130.8260  119.2420  133.9480 C   0  0  0  0  0  0  0  0  0  0  0  0
  131.1730  118.3590  132.9290 N   0  0  0  0  0  0  0  0  0  0  0  0
  131.3360  118.5990  131.5780 C   0  0  0  0  0  0  0  0  0  0  0  0
  131.1960  119.6890  131.0420 O   0  0  0  0  0  0  0  0  0  0  0  0
  131.7060  117.3410  130.8230 C   0  0  0  0  0  0  0  0  0  0  0  0
  132.8230  117.4920  130.0360 N   0  0  0  0  0  0  0  0  0  0  0  0
  133.2300  116.3780  129.3880 C   0  0  0  0  0  0  0  0  0  0  0  0
  132.5930  115.1500  129.5080 C   0  0  0  0  0  0  0  0  0  0  0  0
  132.9970  113.9840  128.8580 N   0  0  0  0  0  0  0  0  0  0  0  0
  134.3150  113.3840  129.2250 C   0  0  0  0  0  0  0  0  0  0  0  0
  134.0170  112.3510  130.3370 C   0  0  0  0  0  0  0  0  0  0  0  0
  135.2990  114.4230  129.7820 C   0  0  0  0  0  0  0  0  0  0  0  0
  134.9310  112.6330  128.0180 C   0  0  0  0  0  0  0  0  0  0  0  0
  134.1100  112.7830  126.8580 O   0  0  0  0  0  0  0  0  0  0  0  0
  131.4830  115.0260  130.2600 N   0  0  0  0  0  0  0  0  0  0  0  0
  131.0150  116.1190  130.9320 C   0  0  0  0  0  0  0  0  0  0  0  0
  129.8290  115.9520  131.6690 N   0  0  0  0  0  0  0  0  0  0  0  0
  128.6560  115.8900  130.7670 C   0  0  0  0  0  0  0  0  0  0  0  0
  127.4380  115.2920  131.4810 C   0  0  0  0  0  0  0  0  0  0  0  0
  127.7280  113.8730  131.9420 C   0  0  0  0  0  0  0  0  0  0  0  0
  129.1890  113.6140  132.2750 C   0  0  0  0  0  0  0  0  0  0  0  0
  129.8870  114.9070  132.7100 C   0  0  0  0  0  0  0  0  0  0  0  0
  126.9330  112.7320  131.3390 C   0  0  0  0  0  0  0  0  0  0  0  0
  126.6600  113.1640  132.7480 C   0  0  0  0  0  0  0  0  0  0  0  0
  130.2040  118.6510  134.9870 N   0  0  0  0  0  0  0  0  0  0  0  0
  129.5818  115.0888  137.1572 H   0  0  0  0  0  0  0  0  0  0  0  0
  128.6662  114.6032  135.6901 H   0  0  0  0  0  0  0  0  0  0  0  0
  129.6215  116.1244  135.6901 H   0  0  0  0  0  0  0  0  0  0  0  0
  125.7426  115.4706  136.7149 H   0  0  0  0  0  0  0  0  0  0  0  0
  126.1833  116.5920  135.3826 H   0  0  0  0  0  0  0  0  0  0  0  0
  126.8079  114.9078  135.3826 H   0  0  0  0  0  0  0  0  0  0  0  0
  128.1400  116.6436  138.9004 H   0  0  0  0  0  0  0  0  0  0  0  0
  126.4698  116.0952  138.5311 H   0  0  0  0  0  0  0  0  0  0  0  0
  127.8235  114.9144  138.5311 H   0  0  0  0  0  0  0  0  0  0  0  0
  127.0190  118.2040  136.4870 H   0  0  0  0  0  0  0  0  0  0  0  0
  129.7421  121.4350  136.9449 H   0  0  0  0  0  0  0  0  0  0  0  0
  130.9095  122.4924  134.9788 H   0  0  0  0  0  0  0  0  0  0  0  0
  131.6026  121.0523  133.0495 H   0  0  0  0  0  0  0  0  0  0  0  0
  131.3030  117.3970  133.2260 H   0  0  0  0  0  0  0  0  0  0  0  0
  134.1105  116.4476  128.7323 H   0  0  0  0  0  0  0  0  0  0  0  0
  132.2600  113.3300  129.1450 H   0  0  0  0  0  0  0  0  0  0  0  0
  134.1530  112.8225  131.3215 H   0  0  0  0  0  0  0  0  0  0  0  0
  132.9801  111.9969  130.2402 H   0  0  0  0  0  0  0  0  0  0  0  0
  134.7060  111.4990  130.2402 H   0  0  0  0  0  0  0  0  0  0  0  0
  135.2753  114.3980  130.8815 H   0  0  0  0  0  0  0  0  0  0  0  0
  136.3154  114.1901  129.4318 H   0  0  0  0  0  0  0  0  0  0  0  0
  135.0112  115.4252  129.4318 H   0  0  0  0  0  0  0  0  0  0  0  0
  135.9300  113.0433  127.8090 H   0  0  0  0  0  0  0  0  0  0  0  0
  135.0020  111.5635  128.2654 H   0  0  0  0  0  0  0  0  0  0  0  0
  133.2720  112.3220  127.0660 H   0  0  0  0  0  0  0  0  0  0  0  0
  128.4097  116.9072  130.4284 H   0  0  0  0  0  0  0  0  0  0  0  0
  128.9085  115.2466  129.9112 H   0  0  0  0  0  0  0  0  0  0  0  0
  127.1915  115.9123  132.3553 H   0  0  0  0  0  0  0  0  0  0  0  0
  126.5922  115.2694  130.7781 H   0  0  0  0  0  0  0  0  0  0  0  0
  129.2477  112.8802  133.0924 H   0  0  0  0  0  0  0  0  0  0  0  0
  129.6918  113.2279  131.3760 H   0  0  0  0  0  0  0  0  0  0  0  0
  129.3964  115.2854  133.6189 H   0  0  0  0  0  0  0  0  0  0  0  0
  130.9460  114.6727  132.8933 H   0  0  0  0  0  0  0  0  0  0  0  0
  126.1942  112.9344  130.5496 H   0  0  0  0  0  0  0  0  0  0  0  0
  127.1895  111.7777  130.8558 H   0  0  0  0  0  0  0  0  0  0  0  0
  125.7208  113.6826  132.9909 H   0  0  0  0  0  0  0  0  0  0  0  0
  126.6338  112.6563  133.7235 H   0  0  0  0  0  0  0  0  0  0  0  0
  1  2  1  0
  2  3  1  0
  2  4  1  0
  2  5  1  0
  5  6  1  0
  6  7  2  0
  6  8  2  0
  6  9  1  0
  9 10  2  0
 10 11  1  0
 11 12  2  0
 12 13  1  0
 13 14  1  0
 14 15  1  0
 15 16  2  0
 15 17  1  0
 17 18  2  0
 18 19  1  0
 19 20  2  0
 20 21  1  0
 21 22  1  0
 22 23  1  0
 22 24  1  0
 22 25  1  0
 25 26  1  0
 20 27  1  0
 27 28  2  0
 28 29  1  0
 29 30  1  0
 30 31  1  0
 31 32  1  0
 32 33  1  0
 33 34  1  0
 32 35  1  0
 35 36  1  0
 13 37  2  0
 37  9  1  0
 28 17  1  0
 34 29  1  0
 36 32  1  0
  1 38  1  0
  1 39  1  0
  1 40  1  0
  3 41  1  0
  3 42  1  0
  3 43  1  0
  4 44  1  0
  4 45  1  0
  4 46  1  0
  5 47  1  0
 10 48  1  0
 11 49  1  0
 12 50  1  0
 14 51  1  0
 19 52  1  0
 21 53  1  0
 23 54  1  0
 23 55  1  0
 23 56  1  0
 24 57  1  0
 24 58  1  0
 24 59  1  0
 25 60  1  0
 25 61  1  0
 26 62  1  0
 30 63  1  0
 30 64  1  0
 31 65  1  0
 31 66  1  0
 33 67  1  0
 33 68  1  0
 34 69  1  0
 34 70  1  0
 35 71  1  0
 35 72  1  0
 36 73  1  0
 36 74  1  0
M  END
$$$$

     RDKit          3D

 74 77  0  0  0  0  0  0  0  0999 V2000
  129.0670  115.6080  136.4990 C   0  0  0  0  0  0  0  0  0  0  0  0
  127.9480  116.5800  136.8850 C   0  0  0  0  0  0  0  0  0  0  0  0
  126.6430  116.1200  136.2150 C   0  0  0  0  0  0  0  0  0  0  0  0
  127.7430  116.6040  138.4030 C   0  0  0  0  0  0  0  0  0  0  0  0
  128.2060  117.9490  136.3900 N   0  0  0  0  0  0  0  0  0  0  0  0
  129.2880  118.9970  137.1590 S   0  0  0  0  0  6  0  0  0  0  0  0
  128.5350  120.0200  137.8510 O   0  0  0  0  0  0  0  0  0  0  0  0
  130.2780  118.1860  137.8380 O   0  0  0  0  0  0  0  0  0  0  0  0
  130.0840  119.7830  135.7630 C   0  0  0  0  0  0  0  0  0  0  0  0
  130.3440  121.1400  135.7830 C   0  0  0  0  0  0  0  0  0  0  0  0
  131.0060  121.6600  134.6810 C   0  0  0  0  0  0  0  0  0  0  0  0
  131.3770  120.8110  133.6350 C   0  0  0  0  0  0  0  0  0  0  0  0
  131.0820  119.4520  133.7150 C   0  0  0  0  0  0  0  0  0  0  0  0
  131.4100  118.5260  132.7290 N   0  0  0  0  0  0  0  0  0  0  0  0
  131.4600  118.6860  131.3570 C   0  0  0  0  0  0  0  0  0  0  0  0
  131.2130  119.7280  130.7670 O   0  0  0  0  0  0  0  0  0  0  0  0
  131.8540  117.4040  130.6550 C   0  0  0  0  0  0  0  0  0  0  0  0
  132.9520  117.5510  129.8410 N   0  0  0  0  0  0  0  0  0  0  0  0
  133.3810  116.4190  129.2380 C   0  0  0  0  0  0  0  0  0  0  0  0
  132.7830  115.1810  129.4280 C   0  0  0  0  0  0  0  0  0  0  0  0
  133.2100  113.9970  128.8250 N   0  0  0  0  0  0  0  0  0  0  0  0
  134.4580  113.3500  129.3320 C   0  0  0  0  0  0  0  0  0  0  0  0
  135.0730  112.6090  128.1220 C   0  0  0  0  0  0  0  0  0  0  0  0
  134.1780  112.3210  130.4370 C   0  0  0  0  0  0  0  0  0  0  0  0
  135.4710  114.4160  129.8150 C   0  0  0  0  0  0  0  0  0  0  0  0
  136.3880  113.8520  130.7550 O   0  0  0  0  0  0  0  0  0  0  0  0
  131.6900  115.0600  130.2050 N   0  0  0  0  0  0  0  0  0  0  0  0
  131.2010  116.1690  130.8340 C   0  0  0  0  0  0  0  0  0  0  0  0
  130.0340  116.0040  131.6000 N   0  0  0  0  0  0  0  0  0  0  0  0
  128.8330  116.0180  130.7340 C   0  0  0  0  0  0  0  0  0  0  0  0
  127.6200  115.4230  131.4590 C   0  0  0  0  0  0  0  0  0  0  0  0
  127.8800  113.9770  131.8450 C   0  0  0  0  0  0  0  0  0  0  0  0
  129.3420  113.6600  132.1200 C   0  0  0  0  0  0  0  0  0  0  0  0
  130.0920  114.9100  132.5900 C   0  0  0  0  0  0  0  0  0  0  0  0
  127.0320  112.8890  131.2170 C   0  0  0  0  0  0  0  0  0  0  0  0
  126.8150  113.2620  132.6520 C   0  0  0  0  0  0  0  0  0  0  0  0
  130.4450  118.9120  134.7730 N   0  0  0  0  0  0  0  0  0  0  0  0
  129.5322  115.2039  137.4102 H   0  0  0  0  0  0  0  0  0  0  0  0
  128.6472  114.7829  135.9048 H   0  0  0  0  0  0  0  0  0  0  0  0
  129.8252  116.1391  135.9048 H   0  0  0  0  0  0  0  0  0  0  0  0
  125.9055  115.8600  136.9886 H   0  0  0  0  0  0  0  0  0  0  0  0
  126.2463  116.9325  135.5885 H   0  0  0  0  0  0  0  0  0  0  0  0
  126.8435  115.2384  135.5885 H   0  0  0  0  0  0  0  0  0  0  0  0
  128.7146  116.4903  138.9060 H   0  0  0  0  0  0  0  0  0  0  0  0
  127.2880  117.5615  138.6965 H   0  0  0  0  0  0  0  0  0  0  0  0
  127.0792  115.7774  138.6965 H   0  0  0  0  0  0  0  0  0  0  0  0
  127.3920  118.4740  136.0500 H   0  0  0  0  0  0  0  0  0  0  0  0
  130.0416  121.7747  136.6290 H   0  0  0  0  0  0  0  0  0  0  0  0
  131.2376  122.7342  134.6306 H   0  0  0  0  0  0  0  0  0  0  0  0
  131.8987  121.2133  132.7541 H   0  0  0  0  0  0  0  0  0  0  0  0
  131.6210  117.5950  133.0730 H   0  0  0  0  0  0  0  0  0  0  0  0
  134.2473  116.4827  128.5631 H   0  0  0  0  0  0  0  0  0  0  0  0
  132.4230  113.3730  129.0320 H   0  0  0  0  0  0  0  0  0  0  0  0
  135.7371  111.8089  128.4809 H   0  0  0  0  0  0  0  0  0  0  0  0
  134.2686  112.1719  127.5122 H   0  0  0  0  0  0  0  0  0  0  0  0
  135.6508  113.3191  127.5122 H   0  0  0  0  0  0  0  0  0  0  0  0
  134.3071  112.7954  131.4210 H   0  0  0  0  0  0  0  0  0  0  0  0
  133.1465  111.9511  130.3407 H   0  0  0  0  0  0  0  0  0  0  0  0
  134.8798  111.4795  130.3407 H   0  0  0  0  0  0  0  0  0  0  0  0
  136.0313  114.8000  128.9498 H   0  0  0  0  0  0  0  0  0  0  0  0
  134.9193  115.2319  130.3049 H   0  0  0  0  0  0  0  0  0  0  0  0
  135.8560  113.6460  131.5510 H   0  0  0  0  0  0  0  0  0  0  0  0
  128.6075  117.0565  130.4500 H   0  0  0  0  0  0  0  0  0  0  0  0
  129.0394  115.4082  129.8421 H   0  0  0  0  0  0  0  0  0  0  0  0
  127.4199  116.0089  132.3682 H   0  0  0  0  0  0  0  0  0  0  0  0
  126.7527  115.4577  130.7834 H   0  0  0  0  0  0  0  0  0  0  0  0
  129.4026  112.8883  132.9015 H   0  0  0  0  0  0  0  0  0  0  0  0
  129.8053  113.3007  131.1893 H   0  0  0  0  0  0  0  0  0  0  0  0
  129.6416  115.2599  133.5306 H   0  0  0  0  0  0  0  0  0  0  0  0
  131.1485  114.6365  132.7276 H   0  0  0  0  0  0  0  0  0  0  0  0
  126.2759  113.1495  130.4617 H   0  0  0  0  0  0  0  0  0  0  0  0
  127.2445  111.9511  130.6829 H   0  0  0  0  0  0  0  0  0  0  0  0
  125.8999  113.7958  132.9481 H   0  0  0  0  0  0  0  0  0  0  0  0
  126.8028  112.7102  133.6035 H   0  0  0  0  0  0  0  0  0  0  0  0
  1  2  1  0
  2  3  1  0
  2  4  1  0
  2  5  1  0
  5  6  1  0
  6  7  2  0
  6  8  2  0
  6  9  1  0
  9 10  2  0
 10 11  1  0
 11 12  2  0
 12 13  1  0
 13 14  1  0
 14 15  1  0
 15 16  2  0
 15 17  1  0
 17 18  2  0
 18 19  1  0
 19 20  2  0
 20 21  1  0
 21 22  1  0
 22 23  1  0
 22 24  1  0
 22 25  1  0
 25 26  1  0
 20 27  1  0
 27 28  2  0
 28 29  1  0
 29 30  1  0
 30 31  1  0
 31 32  1  0
 32 33  1  0
 33 34  1  0
 32 35  1  0
 35 36  1  0
 13 37  2  0
 37  9  1  0
 28 17  1  0
 34 29  1  0
 36 32  1  0
  1 38  1  0
  1 39  1  0
  1 40  1  0
  3 41  1  0
  3 42  1  0
  3 43  1  0
  4 44  1  0
  4 45  1  0
  4 46  1  0
  5 47  1  0
 10 48  1  0
 11 49  1  0
 12 50  1  0
 14 51  1  0
 19 52  1  0
 21 53  1  0
 23 54  1  0
 23 55  1  0
 23 56  1  0
 24 57  1  0
 24 58  1  0
 24 59  1  0
 25 60  1  0
 25 61  1  0
 26 62  1  0
 30 63  1  0
 30 64  1  0
 31 65  1  0
 31 66  1  0
 33 67  1  0
 33 68  1  0
 34 69  1  0
 34 70  1  0
 35 71  1  0
 35 72  1  0
 36 73  1  0
 36 74  1  0
M  END
$$$$

     RDKit          3D

 74 77  0  0  0  0  0  0  0  0999 V2000
  128.1690  115.9270  138.5350 C   0  0  0  0  0  0  0  0  0  0  0  0
  128.4930  116.4630  137.1380 C   0  0  0  0  0  0  0  0  0  0  0  0
  128.8840  115.2820  136.2350 C   0  0  0  0  0  0  0  0  0  0  0  0
  127.2780  117.1710  136.5290 C   0  0  0  0  0  0  0  0  0  0  0  0
  129.6550  117.3780  137.1480 N   0  0  0  0  0  0  0  0  0  0  0  0
  129.4960  119.0330  137.4570 S   0  0  0  0  0  6  0  0  0  0  0  0
  128.2220  119.2670  138.1000 O   0  0  0  0  0  0  0  0  0  0  0  0
  130.7410  119.4940  138.0360 O   0  0  0  0  0  0  0  0  0  0  0  0
  129.3810  119.7000  135.8010 C   0  0  0  0  0  0  0  0  0  0  0  0
  128.7860  120.9280  135.5850 C   0  0  0  0  0  0  0  0  0  0  0  0
  128.7810  121.3920  134.2780 C   0  0  0  0  0  0  0  0  0  0  0  0
  129.3670  120.6220  133.2700 C   0  0  0  0  0  0  0  0  0  0  0  0
  129.9550  119.4010  133.5920 C   0  0  0  0  0  0  0  0  0  0  0  0
  130.5660  118.5640  132.6620 N   0  0  0  0  0  0  0  0  0  0  0  0
  131.5080  118.8640  131.6970 C   0  0  0  0  0  0  0  0  0  0  0  0
  131.9800  119.9760  131.5050 O   0  0  0  0  0  0  0  0  0  0  0  0
  131.8920  117.6450  130.8870 C   0  0  0  0  0  0  0  0  0  0  0  0
  132.9930  117.8520  130.0890 N   0  0  0  0  0  0  0  0  0  0  0  0
  133.4130  116.7730  129.3910 C   0  0  0  0  0  0  0  0  0  0  0  0
  132.8030  115.5280  129.4720 C   0  0  0  0  0  0  0  0  0  0  0  0
  133.2210  114.3970  128.7690 N   0  0  0  0  0  0  0  0  0  0  0  0
  134.2910  113.5430  129.3660 C   0  0  0  0  0  0  0  0  0  0  0  0
  134.8970  112.7400  128.1920 C   0  0  0  0  0  0  0  0  0  0  0  0
  133.7420  112.5490  130.3990 C   0  0  0  0  0  0  0  0  0  0  0  0
  135.4100  114.4180  129.9840 C   0  0  0  0  0  0  0  0  0  0  0  0
  136.4280  113.6000  130.5640 O   0  0  0  0  0  0  0  0  0  0  0  0
  131.7080  115.3500  130.2350 N   0  0  0  0  0  0  0  0  0  0  0  0
  131.2280  116.4050  130.9580 C   0  0  0  0  0  0  0  0  0  0  0  0
  130.0580  116.1840  131.7050 N   0  0  0  0  0  0  0  0  0  0  0  0
  128.8640  116.2040  130.8290 C   0  0  0  0  0  0  0  0  0  0  0  0
  127.6600  115.5540  131.5200 C   0  0  0  0  0  0  0  0  0  0  0  0
  127.9500  114.1000  131.8530 C   0  0  0  0  0  0  0  0  0  0  0  0
  129.4160  113.8060  132.1290 C   0  0  0  0  0  0  0  0  0  0  0  0
  130.1330  115.0550  132.6540 C   0  0  0  0  0  0  0  0  0  0  0  0
  127.1330  113.0180  131.1760 C   0  0  0  0  0  0  0  0  0  0  0  0
  126.8950  113.3320  132.6220 C   0  0  0  0  0  0  0  0  0  0  0  0
  129.9830  118.9230  134.8520 N   0  0  0  0  0  0  0  0  0  0  0  0
  128.5810  116.6085  139.2938 H   0  0  0  0  0  0  0  0  0  0  0  0
  127.0780  115.8583  138.6575 H   0  0  0  0  0  0  0  0  0  0  0  0
  128.6153  114.9291  138.6575 H   0  0  0  0  0  0  0  0  0  0  0  0
  129.1687  114.4220  136.8589 H   0  0  0  0  0  0  0  0  0  0  0  0
  128.0289  115.0072  135.6000 H   0  0  0  0  0  0  0  0  0  0  0  0
  129.7342  115.5718  135.6000 H   0  0  0  0  0  0  0  0  0  0  0  0
  126.6312  117.5479  137.3350 H   0  0  0  0  0  0  0  0  0  0  0  0
  127.6175  118.0127  135.9075 H   0  0  0  0  0  0  0  0  0  0  0  0
  126.7131  116.4606  135.9075 H   0  0  0  0  0  0  0  0  0  0  0  0
  130.3650  117.2230  136.4250 H   0  0  0  0  0  0  0  0  0  0  0  0
  128.3396  121.5074  136.4066 H   0  0  0  0  0  0  0  0  0  0  0  0
  128.3185  122.3604  134.0364 H   0  0  0  0  0  0  0  0  0  0  0  0
  129.3640  120.9777  132.2291 H   0  0  0  0  0  0  0  0  0  0  0  0
  130.2520  117.5990  132.6890 H   0  0  0  0  0  0  0  0  0  0  0  0
  134.2814  116.8869  128.7256 H   0  0  0  0  0  0  0  0  0  0  0  0
  132.3550  113.8480  128.7430 H   0  0  0  0  0  0  0  0  0  0  0  0
  135.5151  111.9210  128.5884 H   0  0  0  0  0  0  0  0  0  0  0  0
  134.0866  112.3228  127.5762 H   0  0  0  0  0  0  0  0  0  0  0  0
  135.5204  113.4049  127.5762 H   0  0  0  0  0  0  0  0  0  0  0  0
  133.9483  112.9225  131.4129 H   0  0  0  0  0  0  0  0  0  0  0  0
  132.6560  112.4404  130.2622 H   0  0  0  0  0  0  0  0  0  0  0  0
  134.2284  111.5719  130.2622 H   0  0  0  0  0  0  0  0  0  0  0  0
  135.8549  115.0444  129.1968 H   0  0  0  0  0  0  0  0  0  0  0  0
  134.9717  115.0489  130.7713 H   0  0  0  0  0  0  0  0  0  0  0  0
  137.2200  113.7260  130.0040 H   0  0  0  0  0  0  0  0  0  0  0  0
  128.6167  117.2472  130.5830 H   0  0  0  0  0  0  0  0  0  0  0  0
  129.0916  115.6343  129.9160 H   0  0  0  0  0  0  0  0  0  0  0  0
  127.4393  116.0998  132.4492 H   0  0  0  0  0  0  0  0  0  0  0  0
  126.7976  115.5947  130.8384 H   0  0  0  0  0  0  0  0  0  0  0  0
  129.4880  113.0063  132.8808 H   0  0  0  0  0  0  0  0  0  0  0  0
  129.8955  113.4933  131.1897 H   0  0  0  0  0  0  0  0  0  0  0  0
  129.6662  115.3585  133.6027 H   0  0  0  0  0  0  0  0  0  0  0  0
  131.1943  114.8010  132.7921 H   0  0  0  0  0  0  0  0  0  0  0  0
  126.3780  113.2898  130.4236 H   0  0  0  0  0  0  0  0  0  0  0  0
  127.3715  112.1060  130.6091 H   0  0  0  0  0  0  0  0  0  0  0  0
  125.9655  113.8337  132.9290 H   0  0  0  0  0  0  0  0  0  0  0  0
  126.8870  112.7447  133.5521 H   0  0  0  0  0  0  0  0  0  0  0  0
  1  2  1  0
  2  3  1  0
  2  4  1  0
  2  5  1  0
  5  6  1  0
  6  7  2  0
  6  8  2  0
  6  9  1  0
  9 10  2  0
 10 11  1  0
 11 12  2  0
 12 13  1  0
 13 14  1  0
 14 15  1  0
 15 16  2  0
 15 17  1  0
 17 18  2  0
 18 19  1  0
 19 20  2  0
 20 21  1  0
 21 22  1  0
 22 23  1  0
 22 24  1  0
 22 25  1  0
 25 26  1  0
 20 27  1  0
 27 28  2  0
 28 29  1  0
 29 30  1  0
 30 31  1  0
 31 32  1  0
 32 33  1  0
 33 34  1  0
 32 35  1  0
 35 36  1  0
 13 37  2  0
 37  9  1  0
 28 17  1  0
 34 29  1  0
 36 32  1  0
  1 38  1  0
  1 39  1  0
  1 40  1  0
  3 41  1  0
  3 42  1  0
  3 43  1  0
  4 44  1  0
  4 45  1  0
  4 46  1  0
  5 47  1  0
 10 48  1  0
 11 49  1  0
 12 50  1  0
 14 51  1  0
 19 52  1  0
 21 53  1  0
 23 54  1  0
 23 55  1  0
 23 56  1  0
 24 57  1  0
 24 58  1  0
 24 59  1  0
 25 60  1  0
 25 61  1  0
 26 62  1  0
 30 63  1  0
 30 64  1  0
 31 65  1  0
 31 66  1  0
 33 67  1  0
 33 68  1  0
 34 69  1  0
 34 70  1  0
 35 71  1  0
 35 72  1  0
 36 73  1  0
 36 74  1  0
M  END
$$$$

     RDKit          3D

 74 77  0  0  0  0  0  0  0  0999 V2000
  127.2240  117.1840  136.5770 C   0  0  0  0  0  0  0  0  0  0  0  0
  128.4860  116.4520  137.0400 C   0  0  0  0  0  0  0  0  0  0  0  0
  128.2540  115.9240  138.4660 C   0  0  0  0  0  0  0  0  0  0  0  0
  128.8030  115.2690  136.1190 C   0  0  0  0  0  0  0  0  0  0  0  0
  129.6550  117.3550  137.1200 N   0  0  0  0  0  0  0  0  0  0  0  0
  129.4950  119.0080  137.4390 S   0  0  0  0  0  6  0  0  0  0  0  0
  128.2310  119.2350  138.1050 O   0  0  0  0  0  0  0  0  0  0  0  0
  130.7480  119.4710  138.0000 O   0  0  0  0  0  0  0  0  0  0  0  0
  129.3490  119.6820  135.7890 C   0  0  0  0  0  0  0  0  0  0  0  0
  128.7230  120.8970  135.5860 C   0  0  0  0  0  0  0  0  0  0  0  0
  128.6950  121.3700  134.2820 C   0  0  0  0  0  0  0  0  0  0  0  0
  129.2910  120.6200  133.2640 C   0  0  0  0  0  0  0  0  0  0  0  0
  129.9110  119.4120  133.5730 C   0  0  0  0  0  0  0  0  0  0  0  0
  130.5340  118.5960  132.6330 N   0  0  0  0  0  0  0  0  0  0  0  0
  131.5650  118.8900  131.7610 C   0  0  0  0  0  0  0  0  0  0  0  0
  132.1230  119.9750  131.6820 O   0  0  0  0  0  0  0  0  0  0  0  0
  131.9270  117.7010  130.8960 C   0  0  0  0  0  0  0  0  0  0  0  0
  133.0220  117.9300  130.0970 N   0  0  0  0  0  0  0  0  0  0  0  0
  133.4240  116.8770  129.3500 C   0  0  0  0  0  0  0  0  0  0  0  0
  132.8010  115.6360  129.3840 C   0  0  0  0  0  0  0  0  0  0  0  0
  133.1990  114.5320  128.6310 N   0  0  0  0  0  0  0  0  0  0  0  0
  134.1400  113.5500  129.2490 C   0  0  0  0  0  0  0  0  0  0  0  0
  135.1940  114.3900  130.0060 C   0  0  0  0  0  0  0  0  0  0  0  0
  134.8660  112.6930  128.2020 C   0  0  0  0  0  0  0  0  0  0  0  0
  133.4020  112.6550  130.2760 C   0  0  0  0  0  0  0  0  0  0  0  0
  134.2900  111.6790  130.8240 O   0  0  0  0  0  0  0  0  0  0  0  0
  131.7110  115.4380  130.1510 N   0  0  0  0  0  0  0  0  0  0  0  0
  131.2500  116.4670  130.9210 C   0  0  0  0  0  0  0  0  0  0  0  0
  130.0850  116.2270  131.6700 N   0  0  0  0  0  0  0  0  0  0  0  0
  128.8930  116.2020  130.7920 C   0  0  0  0  0  0  0  0  0  0  0  0
  127.7040  115.5330  131.4910 C   0  0  0  0  0  0  0  0  0  0  0  0
  128.0310  114.0930  131.8480 C   0  0  0  0  0  0  0  0  0  0  0  0
  129.5030  113.8410  132.1310 C   0  0  0  0  0  0  0  0  0  0  0  0
  130.1860  115.1160  132.6370 C   0  0  0  0  0  0  0  0  0  0  0  0
  127.2430  112.9790  131.1860 C   0  0  0  0  0  0  0  0  0  0  0  0
  126.9940  113.3090  132.6270 C   0  0  0  0  0  0  0  0  0  0  0  0
  129.9620  118.9260  134.8290 N   0  0  0  0  0  0  0  0  0  0  0  0
  126.6503  117.5167  137.4546 H   0  0  0  0  0  0  0  0  0  0  0  0
  127.5080  118.0576  135.9718 H   0  0  0  0  0  0  0  0  0  0  0  0
  126.6067  116.5037  135.9718 H   0  0  0  0  0  0  0  0  0  0  0  0
  128.5855  116.6784  139.1948 H   0  0  0  0  0  0  0  0  0  0  0  0
  127.1830  115.7193  138.6115 H   0  0  0  0  0  0  0  0  0  0  0  0
  128.8276  114.9967  138.6115 H   0  0  0  0  0  0  0  0  0  0  0  0
  129.0402  114.3839  136.7275 H   0  0  0  0  0  0  0  0  0  0  0  0
  127.9306  115.0545  135.4842 H   0  0  0  0  0  0  0  0  0  0  0  0
  129.6657  115.5194  135.4842 H   0  0  0  0  0  0  0  0  0  0  0  0
  130.3990  117.2010  136.4310 H   0  0  0  0  0  0  0  0  0  0  0  0
  128.2703  121.4601  136.4154 H   0  0  0  0  0  0  0  0  0  0  0  0
  128.2072  122.3285  134.0508 H   0  0  0  0  0  0  0  0  0  0  0  0
  129.2704  120.9818  132.2254 H   0  0  0  0  0  0  0  0  0  0  0  0
  130.1550  117.6560  132.5680 H   0  0  0  0  0  0  0  0  0  0  0  0
  134.2877  117.0098  128.6819 H   0  0  0  0  0  0  0  0  0  0  0  0
  132.3010  114.0590  128.4800 H   0  0  0  0  0  0  0  0  0  0  0  0
  135.0468  114.2727  131.0898 H   0  0  0  0  0  0  0  0  0  0  0  0
  136.2024  114.0451  129.7334 H   0  0  0  0  0  0  0  0  0  0  0  0
  135.0828  115.4499  129.7334 H   0  0  0  0  0  0  0  0  0  0  0  0
  135.4965  111.9488  128.7106 H   0  0  0  0  0  0  0  0  0  0  0  0
  134.1255  112.1776  127.5727 H   0  0  0  0  0  0  0  0  0  0  0  0
  135.4961  113.3387  127.5727 H   0  0  0  0  0  0  0  0  0  0  0  0
  133.0111  113.2847  131.0889 H   0  0  0  0  0  0  0  0  0  0  0  0
  132.5772  112.1363  129.7654 H   0  0  0  0  0  0  0  0  0  0  0  0
  134.9200  112.1780  131.3820 H   0  0  0  0  0  0  0  0  0  0  0  0
  128.6198  117.2344  130.5284 H   0  0  0  0  0  0  0  0  0  0  0  0
  129.1373  115.6230  129.8892 H   0  0  0  0  0  0  0  0  0  0  0  0
  127.4670  116.0880  132.4107 H   0  0  0  0  0  0  0  0  0  0  0  0
  126.8422  115.5406  130.8074 H   0  0  0  0  0  0  0  0  0  0  0  0
  129.5939  113.0555  132.8956 H   0  0  0  0  0  0  0  0  0  0  0  0
  129.9924  113.5255  131.1978 H   0  0  0  0  0  0  0  0  0  0  0  0
  129.7088  115.4228  133.5794 H   0  0  0  0  0  0  0  0  0  0  0  0
  131.2531  114.8915  132.7816 H   0  0  0  0  0  0  0  0  0  0  0  0
  126.4827  113.2195  130.4283 H   0  0  0  0  0  0  0  0  0  0  0  0
  127.5061  112.0648  130.6337 H   0  0  0  0  0  0  0  0  0  0  0  0
  126.0511  113.7910  132.9247 H   0  0  0  0  0  0  0  0  0  0  0  0
  126.9993  112.7359  133.5659 H   0  0  0  0  0  0  0  0  0  0  0  0
  1  2  1  0
  2  3  1  0
  2  4  1  0
  2  5  1  0
  5  6  1  0
  6  7  2  0
  6  8  2  0
  6  9  1  0
  9 10  2  0
 10 11  1  0
 11 12  2  0
 12 13  1  0
 13 14  1  0
 14 15  1  0
 15 16  2  0
 15 17  1  0
 17 18  2  0
 18 19  1  0
 19 20  2  0
 20 21  1  0
 21 22  1  0
 22 23  1  0
 22 24  1  0
 22 25  1  0
 25 26  1  0
 20 27  1  0
 27 28  2  0
 28 29  1  0
 29 30  1  0
 30 31  1  0
 31 32  1  0
 32 33  1  0
 33 34  1  0
 32 35  1  0
 35 36  1  0
 13 37  2  0
 37  9  1  0
 28 17  1  0
 34 29  1  0
 36 32  1  0
  1 38  1  0
  1 39  1  0
  1 40  1  0
  3 41  1  0
  3 42  1  0
  3 43  1  0
  4 44  1  0
  4 45  1  0
  4 46  1  0
  5 47  1  0
 10 48  1  0
 11 49  1  0
 12 50  1  0
 14 51  1  0
 19 52  1  0
 21 53  1  0
 23 54  1  0
 23 55  1  0
 23 56  1  0
 24 57  1  0
 24 58  1  0
 24 59  1  0
 25 60  1  0
 25 61  1  0
 26 62  1  0
 30 63  1  0
 30 64  1  0
 31 65  1  0
 31 66  1  0
 33 67  1  0
 33 68  1  0
 34 69  1  0
 34 70  1  0
 35 71  1  0
 35 72  1  0
 36 73  1  0
 36 74  1  0
M  END
$$$$

     RDKit          3D

 74 77  0  0  0  0  0  0  0  0999 V2000
  127.8250  116.5910  138.3820 C   0  0  0  0  0  0  0  0  0  0  0  0
  127.9320  116.5740  136.8540 C   0  0  0  0  0  0  0  0  0  0  0  0
  129.0730  115.6250  136.4510 C   0  0  0  0  0  0  0  0  0  0  0  0
  126.6280  116.0770  136.2210 C   0  0  0  0  0  0  0  0  0  0  0  0
  128.2840  117.9010  136.3060 N   0  0  0  0  0  0  0  0  0  0  0  0
  129.3560  118.9450  137.0940 S   0  0  0  0  0  6  0  0  0  0  0  0
  128.5920  119.9460  137.8070 O   0  0  0  0  0  0  0  0  0  0  0  0
  130.3570  118.1330  137.7540 O   0  0  0  0  0  0  0  0  0  0  0  0
  130.1400  119.7680  135.7130 C   0  0  0  0  0  0  0  0  0  0  0  0
  130.3840  121.1270  135.7590 C   0  0  0  0  0  0  0  0  0  0  0  0
  131.0380  121.6770  134.6660 C   0  0  0  0  0  0  0  0  0  0  0  0
  131.4170  120.8530  133.6030 C   0  0  0  0  0  0  0  0  0  0  0  0
  131.1380  119.4900  133.6570 C   0  0  0  0  0  0  0  0  0  0  0  0
  131.4760  118.5870  132.6520 N   0  0  0  0  0  0  0  0  0  0  0  0
  131.5150  118.7730  131.2830 C   0  0  0  0  0  0  0  0  0  0  0  0
  131.2480  119.8210  130.7130 O   0  0  0  0  0  0  0  0  0  0  0  0
  131.9260  117.5110  130.5550 C   0  0  0  0  0  0  0  0  0  0  0  0
  132.9910  117.6990  129.7070 N   0  0  0  0  0  0  0  0  0  0  0  0
  133.4360  116.5880  129.0790 C   0  0  0  0  0  0  0  0  0  0  0  0
  132.8840  115.3290  129.2760 C   0  0  0  0  0  0  0  0  0  0  0  0
  133.3280  114.1650  128.6480 N   0  0  0  0  0  0  0  0  0  0  0  0
  134.5340  113.4750  129.1970 C   0  0  0  0  0  0  0  0  0  0  0  0
  135.4510  114.5940  129.7440 C   0  0  0  0  0  0  0  0  0  0  0  0
  135.3070  112.7000  128.1210 C   0  0  0  0  0  0  0  0  0  0  0  0
  134.1470  112.5460  130.3740 C   0  0  0  0  0  0  0  0  0  0  0  0
  135.2550  112.3620  131.2570 O   0  0  0  0  0  0  0  0  0  0  0  0
  131.8220  115.1660  130.0880 N   0  0  0  0  0  0  0  0  0  0  0  0
  131.3190  116.2540  130.7440 C   0  0  0  0  0  0  0  0  0  0  0  0
  130.1840  116.0440  131.5460 N   0  0  0  0  0  0  0  0  0  0  0  0
  128.9480  116.1060  130.7320 C   0  0  0  0  0  0  0  0  0  0  0  0
  127.7650  115.4690  131.4710 C   0  0  0  0  0  0  0  0  0  0  0  0
  128.0400  114.0040  131.7650 C   0  0  0  0  0  0  0  0  0  0  0  0
  129.5110  113.6740  131.9610 C   0  0  0  0  0  0  0  0  0  0  0  0
  130.2810  114.8970  132.4700 C   0  0  0  0  0  0  0  0  0  0  0  0
  127.1660  112.9520  131.1110 C   0  0  0  0  0  0  0  0  0  0  0  0
  127.0080  113.2440  132.5730 C   0  0  0  0  0  0  0  0  0  0  0  0
  130.5090  118.9220  134.7050 N   0  0  0  0  0  0  0  0  0  0  0  0
  128.8211  116.4327  138.8211 H   0  0  0  0  0  0  0  0  0  0  0  0
  127.4295  117.5633  138.7111 H   0  0  0  0  0  0  0  0  0  0  0  0
  127.1476  115.7892  138.7111 H   0  0  0  0  0  0  0  0  0  0  0  0
  129.5540  115.2249  137.3558 H   0  0  0  0  0  0  0  0  0  0  0  0
  128.6663  114.7951  135.8545 H   0  0  0  0  0  0  0  0  0  0  0  0
  129.8149  116.1761  135.8545 H   0  0  0  0  0  0  0  0  0  0  0  0
  125.9156  115.8055  137.0140 H   0  0  0  0  0  0  0  0  0  0  0  0
  126.1963  116.8736  135.5973 H   0  0  0  0  0  0  0  0  0  0  0  0
  126.8360  115.1951  135.5973 H   0  0  0  0  0  0  0  0  0  0  0  0
  127.5210  118.4370  135.8800 H   0  0  0  0  0  0  0  0  0  0  0  0
  130.0757  121.7413  136.6178 H   0  0  0  0  0  0  0  0  0  0  0  0
  131.2567  122.7546  134.6364 H   0  0  0  0  0  0  0  0  0  0  0  0
  131.9324  121.2784  132.7293 H   0  0  0  0  0  0  0  0  0  0  0  0
  131.7040  117.6530  132.9780 H   0  0  0  0  0  0  0  0  0  0  0  0
  134.2772  116.6859  128.3770 H   0  0  0  0  0  0  0  0  0  0  0  0
  132.5210  113.5460  128.7820 H   0  0  0  0  0  0  0  0  0  0  0  0
  135.4359  114.5756  130.8437 H   0  0  0  0  0  0  0  0  0  0  0  0
  136.4793  114.4318  129.3886 H   0  0  0  0  0  0  0  0  0  0  0  0
  135.0900  115.5704  129.3886 H   0  0  0  0  0  0  0  0  0  0  0  0
  136.0051  112.0001  128.6036 H   0  0  0  0  0  0  0  0  0  0  0  0
  134.5991  112.1380  127.4942 H   0  0  0  0  0  0  0  0  0  0  0  0
  135.8709  113.4065  127.4942 H   0  0  0  0  0  0  0  0  0  0  0  0
  133.3124  112.9971  130.9308 H   0  0  0  0  0  0  0  0  0  0  0  0
  133.8507  111.5670  129.9694 H   0  0  0  0  0  0  0  0  0  0  0  0
  135.7960  111.6510  130.8580 H   0  0  0  0  0  0  0  0  0  0  0  0
  128.7122  117.1588  130.5173 H   0  0  0  0  0  0  0  0  0  0  0  0
  129.1170  115.5484  129.7990 H   0  0  0  0  0  0  0  0  0  0  0  0
  127.6018  116.0029  132.4188 H   0  0  0  0  0  0  0  0  0  0  0  0
  126.8711  115.5396  130.8338 H   0  0  0  0  0  0  0  0  0  0  0  0
  129.6030  112.8593  132.6943 H   0  0  0  0  0  0  0  0  0  0  0  0
  129.9353  113.3685  130.9932 H   0  0  0  0  0  0  0  0  0  0  0  0
  129.8693  115.1932  133.4461 H   0  0  0  0  0  0  0  0  0  0  0  0
  131.3420  114.6177  132.5497 H   0  0  0  0  0  0  0  0  0  0  0  0
  126.3803  113.2538  130.4027 H   0  0  0  0  0  0  0  0  0  0  0  0
  127.3554  112.0459  130.5168 H   0  0  0  0  0  0  0  0  0  0  0  0
  126.1064  113.7594  132.9355 H   0  0  0  0  0  0  0  0  0  0  0  0
  127.0338  112.6397  133.4918 H   0  0  0  0  0  0  0  0  0  0  0  0
  1  2  1  0
  2  3  1  0
  2  4  1  0
  2  5  1  0
  5  6  1  0
  6  7  2  0
  6  8  2  0
  6  9  1  0
  9 10  2  0
 10 11  1  0
 11 12  2  0
 12 13  1  0
 13 14  1  0
 14 15  1  0
 15 16  2  0
 15 17  1  0
 17 18  2  0
 18 19  1  0
 19 20  2  0
 20 21  1  0
 21 22  1  0
 22 23  1  0
 22 24  1  0
 22 25  1  0
 25 26  1  0
 20 27  1  0
 27 28  2  0
 28 29  1  0
 29 30  1  0
 30 31  1  0
 31 32  1  0
 32 33  1  0
 33 34  1  0
 32 35  1  0
 35 36  1  0
 13 37  2  0
 37  9  1  0
 28 17  1  0
 34 29  1  0
 36 32  1  0
  1 38  1  0
  1 39  1  0
  1 40  1  0
  3 41  1  0
  3 42  1  0
  3 43  1  0
  4 44  1  0
  4 45  1  0
  4 46  1  0
  5 47  1  0
 10 48  1  0
 11 49  1  0
 12 50  1  0
 14 51  1  0
 19 52  1  0
 21 53  1  0
 23 54  1  0
 23 55  1  0
 23 56  1  0
 24 57  1  0
 24 58  1  0
 24 59  1  0
 25 60  1  0
 25 61  1  0
 26 62  1  0
 30 63  1  0
 30 64  1  0
 31 65  1  0
 31 66  1  0
 33 67  1  0
 33 68  1  0
 34 69  1  0
 34 70  1  0
 35 71  1  0
 35 72  1  0
 36 73  1  0
 36 74  1  0
M  END
$$$$

     RDKit          3D

 74 77  0  0  0  0  0  0  0  0999 V2000
  128.5330  115.6720  136.3200 C   0  0  0  0  0  0  0  0  0  0  0  0
  128.9180  116.8920  137.1630 C   0  0  0  0  0  0  0  0  0  0  0  0
  127.8940  117.0480  138.2990 C   0  0  0  0  0  0  0  0  0  0  0  0
  130.3120  116.7160  137.7730 C   0  0  0  0  0  0  0  0  0  0  0  0
  128.8640  118.1460  136.3820 N   0  0  0  0  0  0  0  0  0  0  0  0
  129.5200  119.5950  136.9590 S   0  0  0  0  0  6  0  0  0  0  0  0
  128.4390  120.5060  137.2680 O   0  0  0  0  0  0  0  0  0  0  0  0
  130.5390  119.2600  137.9320 O   0  0  0  0  0  0  0  0  0  0  0  0
  130.3400  120.2260  135.5000 C   0  0  0  0  0  0  0  0  0  0  0  0
  130.6490  121.5700  135.4010 C   0  0  0  0  0  0  0  0  0  0  0  0
  131.3260  121.9670  134.2580 C   0  0  0  0  0  0  0  0  0  0  0  0
  131.6620  121.0170  133.2900 C   0  0  0  0  0  0  0  0  0  0  0  0
  131.3180  119.6820  133.4890 C   0  0  0  0  0  0  0  0  0  0  0  0
  131.6100  118.6630  132.5870 N   0  0  0  0  0  0  0  0  0  0  0  0
  131.5320  118.6620  131.2080 C   0  0  0  0  0  0  0  0  0  0  0  0
  131.1770  119.6150  130.5290 O   0  0  0  0  0  0  0  0  0  0  0  0
  131.9330  117.3250  130.6210 C   0  0  0  0  0  0  0  0  0  0  0  0
  133.0740  117.3920  129.8560 N   0  0  0  0  0  0  0  0  0  0  0  0
  133.5080  116.2120  129.3600 C   0  0  0  0  0  0  0  0  0  0  0  0
  132.8750  115.0020  129.6070 C   0  0  0  0  0  0  0  0  0  0  0  0
  133.3060  113.7700  129.1150 N   0  0  0  0  0  0  0  0  0  0  0  0
  134.7230  113.3620  129.3580 C   0  0  0  0  0  0  0  0  0  0  0  0
  135.5000  114.6700  129.6340 C   0  0  0  0  0  0  0  0  0  0  0  0
  135.3530  112.6740  128.1390 C   0  0  0  0  0  0  0  0  0  0  0  0
  134.8270  112.4610  130.6140 C   0  0  0  0  0  0  0  0  0  0  0  0
  136.0820  112.6520  131.2700 O   0  0  0  0  0  0  0  0  0  0  0  0
  131.7420  114.9580  130.3340 N   0  0  0  0  0  0  0  0  0  0  0  0
  131.2460  116.1190  130.8550 C   0  0  0  0  0  0  0  0  0  0  0  0
  130.0380  116.0300  131.5690 N   0  0  0  0  0  0  0  0  0  0  0  0
  128.8860  115.9530  130.6430 C   0  0  0  0  0  0  0  0  0  0  0  0
  127.6340  115.4330  131.3580 C   0  0  0  0  0  0  0  0  0  0  0  0
  127.8680  114.0340  131.9050 C   0  0  0  0  0  0  0  0  0  0  0  0
  129.3110  113.7500  132.2890 C   0  0  0  0  0  0  0  0  0  0  0  0
  130.0390  115.0440  132.6680 C   0  0  0  0  0  0  0  0  0  0  0  0
  127.0510  112.8860  131.3470 C   0  0  0  0  0  0  0  0  0  0  0  0
  126.7580  113.4040  132.7220 C   0  0  0  0  0  0  0  0  0  0  0  0
  130.6650  119.2600  134.5900 N   0  0  0  0  0  0  0  0  0  0  0  0
  128.2691  114.8358  136.9842 H   0  0  0  0  0  0  0  0  0  0  0  0
  127.6702  115.9224  135.6853 H   0  0  0  0  0  0  0  0  0  0  0  0
  129.3832  115.3818  135.6853 H   0  0  0  0  0  0  0  0  0  0  0  0
  128.4074  116.9698  139.2687 H   0  0  0  0  0  0  0  0  0  0  0  0
  127.4062  118.0308  138.2206 H   0  0  0  0  0  0  0  0  0  0  0  0
  127.1357  116.2550  138.2206 H   0  0  0  0  0  0  0  0  0  0  0  0
  130.2359  116.7256  138.8703 H   0  0  0  0  0  0  0  0  0  0  0  0
  130.7381  115.7569  137.4434 H   0  0  0  0  0  0  0  0  0  0  0  0
  130.9631  117.5391  137.4434 H   0  0  0  0  0  0  0  0  0  0  0  0
  127.9910  118.3340  135.8770 H   0  0  0  0  0  0  0  0  0  0  0  0
  130.3722  122.2869  136.1880 H   0  0  0  0  0  0  0  0  0  0  0  0
  131.5969  123.0234  134.1141 H   0  0  0  0  0  0  0  0  0  0  0  0
  132.1946  121.3214  132.3769 H   0  0  0  0  0  0  0  0  0  0  0  0
  131.9010  117.7880  133.0140 H   0  0  0  0  0  0  0  0  0  0  0  0
  134.4087  116.2107  128.7285 H   0  0  0  0  0  0  0  0  0  0  0  0
  132.6980  113.1250  129.6310 H   0  0  0  0  0  0  0  0  0  0  0  0
  135.5897  114.8210  130.7199 H   0  0  0  0  0  0  0  0  0  0  0  0
  136.5037  114.6011  129.1892 H   0  0  0  0  0  0  0  0  0  0  0  0
  134.9594  115.5185  129.1892 H   0  0  0  0  0  0  0  0  0  0  0  0
  136.0597  111.9022  128.4781 H   0  0  0  0  0  0  0  0  0  0  0  0
  134.5630  112.2068  127.5327 H   0  0  0  0  0  0  0  0  0  0  0  0
  135.8878  113.4199  127.5327 H   0  0  0  0  0  0  0  0  0  0  0  0
  134.0136  112.7156  131.3094 H   0  0  0  0  0  0  0  0  0  0  0  0
  134.7473  111.4091  130.3023 H   0  0  0  0  0  0  0  0  0  0  0  0
  136.1760  113.6200  131.3810 H   0  0  0  0  0  0  0  0  0  0  0  0
  128.6798  116.9566  130.2426 H   0  0  0  0  0  0  0  0  0  0  0  0
  129.1381  115.2556  129.8306 H   0  0  0  0  0  0  0  0  0  0  0  0
  127.3865  116.1089  132.1898 H   0  0  0  0  0  0  0  0  0  0  0  0
  126.8049  115.3957  130.6360 H   0  0  0  0  0  0  0  0  0  0  0  0
  129.3269  113.0627  133.1477 H   0  0  0  0  0  0  0  0  0  0  0  0
  129.8225  113.2978  131.4265 H   0  0  0  0  0  0  0  0  0  0  0  0
  129.5397  115.4878  133.5419 H   0  0  0  0  0  0  0  0  0  0  0  0
  131.0857  114.7886  132.8900 H   0  0  0  0  0  0  0  0  0  0  0  0
  126.3380  113.0663  130.5290 H   0  0  0  0  0  0  0  0  0  0  0  0
  127.2884  111.8985  130.9244 H   0  0  0  0  0  0  0  0  0  0  0  0
  125.8303  113.9639  132.9116 H   0  0  0  0  0  0  0  0  0  0  0  0
  126.6920  112.9528  133.7230 H   0  0  0  0  0  0  0  0  0  0  0  0
  1  2  1  0
  2  3  1  0
  2  4  1  0
  2  5  1  0
  5  6  1  0
  6  7  2  0
  6  8  2  0
  6  9  1  0
  9 10  2  0
 10 11  1  0
 11 12  2  0
 12 13  1  0
 13 14  1  0
 14 15  1  0
 15 16  2  0
 15 17  1  0
 17 18  2  0
 18 19  1  0
 19 20  2  0
 20 21  1  0
 21 22  1  0
 22 23  1  0
 22 24  1  0
 22 25  1  0
 25 26  1  0
 20 27  1  0
 27 28  2  0
 28 29  1  0
 29 30  1  0
 30 31  1  0
 31 32  1  0
 32 33  1  0
 33 34  1  0
 32 35  1  0
 35 36  1  0
 13 37  2  0
 37  9  1  0
 28 17  1  0
 34 29  1  0
 36 32  1  0
  1 38  1  0
  1 39  1  0
  1 40  1  0
  3 41  1  0
  3 42  1  0
  3 43  1  0
  4 44  1  0
  4 45  1  0
  4 46  1  0
  5 47  1  0
 10 48  1  0
 11 49  1  0
 12 50  1  0
 14 51  1  0
 19 52  1  0
 21 53  1  0
 23 54  1  0
 23 55  1  0
 23 56  1  0
 24 57  1  0
 24 58  1  0
 24 59  1  0
 25 60  1  0
 25 61  1  0
 26 62  1  0
 30 63  1  0
 30 64  1  0
 31 65  1  0
 31 66  1  0
 33 67  1  0
 33 68  1  0
 34 69  1  0
 34 70  1  0
 35 71  1  0
 35 72  1  0
 36 73  1  0
 36 74  1  0
M  END
$$$$

     RDKit          3D

 74 77  0  0  0  0  0  0  0  0999 V2000
  134.2320  112.1210  130.4030 C   0  0  0  0  0  0  0  0  0  0  0  0
  135.2360  113.1380  129.8540 C   0  0  0  0  0  0  0  0  0  0  0  0
  136.4250  113.2300  130.8250 C   0  0  0  0  0  0  0  0  0  0  0  0
  135.7530  112.7080  128.4770 C   0  0  0  0  0  0  0  0  0  0  0  0
  134.6630  114.4990  129.7730 N   0  0  0  0  0  0  0  0  0  0  0  0
  133.1280  114.7920  129.1270 S   0  0  0  0  0  6  0  0  0  0  0  0
  133.2210  114.7900  127.6840 O   0  0  0  0  0  0  0  0  0  0  0  0
  132.1840  113.9510  129.8340 O   0  0  0  0  0  0  0  0  0  0  0  0
  132.8410  116.4840  129.6330 C   0  0  0  0  0  0  0  0  0  0  0  0
  133.3440  117.5300  128.8830 C   0  0  0  0  0  0  0  0  0  0  0  0
  133.0360  118.8100  129.3190 C   0  0  0  0  0  0  0  0  0  0  0  0
  132.2460  118.9780  130.4600 C   0  0  0  0  0  0  0  0  0  0  0  0
  131.7740  117.8590  131.1400 C   0  0  0  0  0  0  0  0  0  0  0  0
  130.9810  117.9210  132.2820 N   0  0  0  0  0  0  0  0  0  0  0  0
  130.7690  118.9780  133.1470 C   0  0  0  0  0  0  0  0  0  0  0  0
  131.2740  120.0860  133.0310 O   0  0  0  0  0  0  0  0  0  0  0  0
  129.8340  118.6030  134.2770 C   0  0  0  0  0  0  0  0  0  0  0  0
  129.8070  119.5350  135.2870 N   0  0  0  0  0  0  0  0  0  0  0  0
  128.9400  119.2760  136.2910 C   0  0  0  0  0  0  0  0  0  0  0  0
  128.1110  118.1630  136.3140 C   0  0  0  0  0  0  0  0  0  0  0  0
  127.2020  117.8750  137.3330 N   0  0  0  0  0  0  0  0  0  0  0  0
  127.6570  117.0240  138.4730 C   0  0  0  0  0  0  0  0  0  0  0  0
  126.4640  116.1050  138.8190 C   0  0  0  0  0  0  0  0  0  0  0  0
  128.0090  117.8500  139.7190 C   0  0  0  0  0  0  0  0  0  0  0  0
  128.8510  116.1320  138.0490 C   0  0  0  0  0  0  0  0  0  0  0  0
  128.3890  114.9490  137.3940 O   0  0  0  0  0  0  0  0  0  0  0  0
  128.1710  117.2440  135.3310 N   0  0  0  0  0  0  0  0  0  0  0  0
  129.0350  117.4440  134.2920 C   0  0  0  0  0  0  0  0  0  0  0  0
  129.0950  116.4380  133.3120 N   0  0  0  0  0  0  0  0  0  0  0  0
  129.1950  115.1000  133.9390 C   0  0  0  0  0  0  0  0  0  0  0  0
  128.8330  113.9920  132.9430 C   0  0  0  0  0  0  0  0  0  0  0  0
  127.4040  114.1540  132.4540 C   0  0  0  0  0  0  0  0  0  0  0  0
  126.9180  115.5950  132.4180 C   0  0  0  0  0  0  0  0  0  0  0  0
  128.0930  116.5610  132.2340 C   0  0  0  0  0  0  0  0  0  0  0  0
  126.3900  113.0800  132.7920 C   0  0  0  0  0  0  0  0  0  0  0  0
  126.9120  113.1930  131.3910 C   0  0  0  0  0  0  0  0  0  0  0  0
  132.0500  116.6010  130.7410 N   0  0  0  0  0  0  0  0  0  0  0  0
  134.2528  112.1421  131.5026 H   0  0  0  0  0  0  0  0  0  0  0  0
  133.2217  112.3761  130.0504 H   0  0  0  0  0  0  0  0  0  0  0  0
  134.5000  111.1141  130.0504 H   0  0  0  0  0  0  0  0  0  0  0  0
  136.0556  113.2014  131.8607 H   0  0  0  0  0  0  0  0  0  0  0  0
  137.1042  112.3817  130.6544 H   0  0  0  0  0  0  0  0  0  0  0  0
  136.9656  114.1727  130.6544 H   0  0  0  0  0  0  0  0  0  0  0  0
  136.5932  112.0092  128.6026 H   0  0  0  0  0  0  0  0  0  0  0  0
  134.9442  112.2125  127.9200 H   0  0  0  0  0  0  0  0  0  0  0  0
  136.0928  113.5936  127.9200 H   0  0  0  0  0  0  0  0  0  0  0  0
  135.3060  115.2510  129.5050 H   0  0  0  0  0  0  0  0  0  0  0  0
  133.9571  117.3563  127.9864 H   0  0  0  0  0  0  0  0  0  0  0  0
  133.4107  119.6870  128.7708 H   0  0  0  0  0  0  0  0  0  0  0  0
  131.9989  119.9883  130.8182 H   0  0  0  0  0  0  0  0  0  0  0  0
  130.5090  117.0540  132.5200 H   0  0  0  0  0  0  0  0  0  0  0  0
  128.8888  119.9829  137.1323 H   0  0  0  0  0  0  0  0  0  0  0  0
  127.0070  118.8140  137.6970 H   0  0  0  0  0  0  0  0  0  0  0  0
  126.3649  116.0286  139.9119 H   0  0  0  0  0  0  0  0  0  0  0  0
  125.5408  116.5276  138.3957 H   0  0  0  0  0  0  0  0  0  0  0  0
  126.6370  115.1046  138.3957 H   0  0  0  0  0  0  0  0  0  0  0  0
  127.7632  117.2732  140.6228 H   0  0  0  0  0  0  0  0  0  0  0  0
  129.0842  118.0821  139.7133 H   0  0  0  0  0  0  0  0  0  0  0  0
  127.4317  118.7863  139.7133 H   0  0  0  0  0  0  0  0  0  0  0  0
  129.4975  116.6968  137.3611 H   0  0  0  0  0  0  0  0  0  0  0  0
  129.4133  115.8419  138.9488 H   0  0  0  0  0  0  0  0  0  0  0  0
  127.8680  115.2600  136.6250 H   0  0  0  0  0  0  0  0  0  0  0  0
  130.2259  114.9443  134.2897 H   0  0  0  0  0  0  0  0  0  0  0  0
  128.4880  115.0562  134.7806 H   0  0  0  0  0  0  0  0  0  0  0  0
  129.5167  114.0425  132.0828 H   0  0  0  0  0  0  0  0  0  0  0  0
  128.9253  113.0191  133.4480 H   0  0  0  0  0  0  0  0  0  0  0  0
  126.2155  115.7179  131.5805 H   0  0  0  0  0  0  0  0  0  0  0  0
  126.4201  115.8231  133.3719 H   0  0  0  0  0  0  0  0  0  0  0  0
  128.5806  116.3454  131.2718 H   0  0  0  0  0  0  0  0  0  0  0  0
  127.6934  117.5855  132.2618 H   0  0  0  0  0  0  0  0  0  0  0  0
  126.6835  112.2260  133.4201 H   0  0  0  0  0  0  0  0  0  0  0  0
  125.3894  113.0740  133.2490 H   0  0  0  0  0  0  0  0  0  0  0  0
  127.5878  112.4217  130.9930 H   0  0  0  0  0  0  0  0  0  0  0  0
  126.4516  113.3039  130.3982 H   0  0  0  0  0  0  0  0  0  0  0  0
  1  2  1  0
  2  3  1  0
  2  4  1  0
  2  5  1  0
  5  6  1  0
  6  7  2  0
  6  8  2  0
  6  9  1  0
  9 10  2  0
 10 11  1  0
 11 12  2  0
 12 13  1  0
 13 14  1  0
 14 15  1  0
 15 16  2  0
 15 17  1  0
 17 18  2  0
 18 19  1  0
 19 20  2  0
 20 21  1  0
 21 22  1  0
 22 23  1  0
 22 24  1  0
 22 25  1  0
 25 26  1  0
 20 27  1  0
 27 28  2  0
 28 29  1  0
 29 30  1  0
 30 31  1  0
 31 32  1  0
 32 33  1  0
 33 34  1  0
 32 35  1  0
 35 36  1  0
 13 37  2  0
 37  9  1  0
 28 17  1  0
 34 29  1  0
 36 32  1  0
  1 38  1  0
  1 39  1  0
  1 40  1  0
  3 41  1  0
  3 42  1  0
  3 43  1  0
  4 44  1  0
  4 45  1  0
  4 46  1  0
  5 47  1  0
 10 48  1  0
 11 49  1  0
 12 50  1  0
 14 51  1  0
 19 52  1  0
 21 53  1  0
 23 54  1  0
 23 55  1  0
 23 56  1  0
 24 57  1  0
 24 58  1  0
 24 59  1  0
 25 60  1  0
 25 61  1  0
 26 62  1  0
 30 63  1  0
 30 64  1  0
 31 65  1  0
 31 66  1  0
 33 67  1  0
 33 68  1  0
 34 69  1  0
 34 70  1  0
 35 71  1  0
 35 72  1  0
 36 73  1  0
 36 74  1  0
M  END
$$$$

     RDKit          3D

 74 77  0  0  0  0  0  0  0  0999 V2000
  132.7850  113.6340  128.0330 C   0  0  0  0  0  0  0  0  0  0  0  0
  132.3610  113.8230  129.4920 C   0  0  0  0  0  0  0  0  0  0  0  0
  130.8510  113.5550  129.6050 C   0  0  0  0  0  0  0  0  0  0  0  0
  133.1080  112.8490  130.4090 C   0  0  0  0  0  0  0  0  0  0  0  0
  132.5700  115.2120  129.9560 N   0  0  0  0  0  0  0  0  0  0  0  0
  133.6450  116.2670  129.1860 S   0  0  0  0  0  6  0  0  0  0  0  0
  134.9950  115.9220  129.5760 O   0  0  0  0  0  0  0  0  0  0  0  0
  133.2510  116.3610  127.7960 O   0  0  0  0  0  0  0  0  0  0  0  0
  133.2510  117.8230  129.9760 C   0  0  0  0  0  0  0  0  0  0  0  0
  133.7990  119.0010  129.5050 C   0  0  0  0  0  0  0  0  0  0  0  0
  133.4040  120.1670  130.1440 C   0  0  0  0  0  0  0  0  0  0  0  0
  132.4900  120.0990  131.1990 C   0  0  0  0  0  0  0  0  0  0  0  0
  131.9830  118.8630  131.5910 C   0  0  0  0  0  0  0  0  0  0  0  0
  131.0690  118.6920  132.6260 N   0  0  0  0  0  0  0  0  0  0  0  0
  130.0980  119.5580  133.0920 C   0  0  0  0  0  0  0  0  0  0  0  0
  129.8790  120.6710  132.6350 O   0  0  0  0  0  0  0  0  0  0  0  0
  129.3280  118.9690  134.2540 C   0  0  0  0  0  0  0  0  0  0  0  0
  129.1310  119.8630  135.2800 N   0  0  0  0  0  0  0  0  0  0  0  0
  128.3940  119.4030  136.3160 C   0  0  0  0  0  0  0  0  0  0  0  0
  127.8480  118.1270  136.3560 C   0  0  0  0  0  0  0  0  0  0  0  0
  127.0790  117.6300  137.4080 N   0  0  0  0  0  0  0  0  0  0  0  0
  127.7730  116.9200  138.5240 C   0  0  0  0  0  0  0  0  0  0  0  0
  126.7620  115.8810  139.0610 C   0  0  0  0  0  0  0  0  0  0  0  0
  128.1530  117.8640  139.6740 C   0  0  0  0  0  0  0  0  0  0  0  0
  129.0180  116.1600  138.0010 C   0  0  0  0  0  0  0  0  0  0  0  0
  128.6310  114.9560  137.3360 O   0  0  0  0  0  0  0  0  0  0  0  0
  128.0760  117.2530  135.3560 N   0  0  0  0  0  0  0  0  0  0  0  0
  128.8220  117.6550  134.2850 C   0  0  0  0  0  0  0  0  0  0  0  0
  129.0700  116.6960  133.2870 N   0  0  0  0  0  0  0  0  0  0  0  0
  129.3170  115.3660  133.8880 C   0  0  0  0  0  0  0  0  0  0  0  0
  129.1630  114.2500  132.8480 C   0  0  0  0  0  0  0  0  0  0  0  0
  127.7530  114.2340  132.2820 C   0  0  0  0  0  0  0  0  0  0  0  0
  127.0780  115.5970  132.2520 C   0  0  0  0  0  0  0  0  0  0  0  0
  128.1190  116.7170  132.1580 C   0  0  0  0  0  0  0  0  0  0  0  0
  126.8770  113.0230  132.5370 C   0  0  0  0  0  0  0  0  0  0  0  0
  127.4520  113.2480  131.1720 C   0  0  0  0  0  0  0  0  0  0  0  0
  132.3410  117.7120  130.9890 N   0  0  0  0  0  0  0  0  0  0  0  0
  133.7892  113.1864  127.9981 H   0  0  0  0  0  0  0  0  0  0  0  0
  132.0696  112.9696  127.5264 H   0  0  0  0  0  0  0  0  0  0  0  0
  132.8009  114.6103  127.5264 H   0  0  0  0  0  0  0  0  0  0  0  0
  130.5660  113.5044  130.6662 H   0  0  0  0  0  0  0  0  0  0  0  0
  130.2965  114.3688  129.1148 H   0  0  0  0  0  0  0  0  0  0  0  0
  130.6104  112.6001  129.1148 H   0  0  0  0  0  0  0  0  0  0  0  0
  132.9090  113.1084  131.4593 H   0  0  0  0  0  0  0  0  0  0  0  0
  132.7630  111.8231  130.2130 H   0  0  0  0  0  0  0  0  0  0  0  0
  134.1883  112.9162  130.2130 H   0  0  0  0  0  0  0  0  0  0  0  0
  132.6040  115.3550  130.9710 H   0  0  0  0  0  0  0  0  0  0  0  0
  134.5114  119.0133  128.6669 H   0  0  0  0  0  0  0  0  0  0  0  0
  133.8074  121.1386  129.8226 H   0  0  0  0  0  0  0  0  0  0  0  0
  132.1731  121.0164  131.7166 H   0  0  0  0  0  0  0  0  0  0  0  0
  131.1460  117.8090  133.1210 H   0  0  0  0  0  0  0  0  0  0  0  0
  128.2181  120.0734  137.1702 H   0  0  0  0  0  0  0  0  0  0  0  0
  126.6740  118.4930  137.7850 H   0  0  0  0  0  0  0  0  0  0  0  0
  126.7734  115.8928  140.1609 H   0  0  0  0  0  0  0  0  0  0  0  0
  125.7529  116.1318  138.7021 H   0  0  0  0  0  0  0  0  0  0  0  0
  127.0403  114.8791  138.7021 H   0  0  0  0  0  0  0  0  0  0  0  0
  127.9537  117.3689  140.6359 H   0  0  0  0  0  0  0  0  0  0  0  0
  129.2219  118.1143  139.6050 H   0  0  0  0  0  0  0  0  0  0  0  0
  127.5556  118.7850  139.6050 H   0  0  0  0  0  0  0  0  0  0  0  0
  129.5638  116.8032  137.2951 H   0  0  0  0  0  0  0  0  0  0  0  0
  129.6602  115.9017  138.8559 H   0  0  0  0  0  0  0  0  0  0  0  0
  127.8120  114.6590  137.7830 H   0  0  0  0  0  0  0  0  0  0  0  0
  130.3392  115.3398  134.2936 H   0  0  0  0  0  0  0  0  0  0  0  0
  128.5784  115.2021  134.6865 H   0  0  0  0  0  0  0  0  0  0  0  0
  129.8787  114.4178  132.0297 H   0  0  0  0  0  0  0  0  0  0  0  0
  129.3596  113.2834  133.3349 H   0  0  0  0  0  0  0  0  0  0  0  0
  126.4111  115.6501  131.3788 H   0  0  0  0  0  0  0  0  0  0  0  0
  126.5032  115.7266  133.1809 H   0  0  0  0  0  0  0  0  0  0  0  0
  128.6813  116.5992  131.2199 H   0  0  0  0  0  0  0  0  0  0  0  0
  127.5831  117.6771  132.1881 H   0  0  0  0  0  0  0  0  0  0  0  0
  127.2499  112.1971  133.1606 H   0  0  0  0  0  0  0  0  0  0  0  0
  125.8637  112.8687  132.9362 H   0  0  0  0  0  0  0  0  0  0  0  0
  128.2461  112.5866  130.7951 H   0  0  0  0  0  0  0  0  0  0  0  0
  127.0336  113.3264  130.1577 H   0  0  0  0  0  0  0  0  0  0  0  0
  1  2  1  0
  2  3  1  0
  2  4  1  0
  2  5  1  0
  5  6  1  0
  6  7  2  0
  6  8  2  0
  6  9  1  0
  9 10  2  0
 10 11  1  0
 11 12  2  0
 12 13  1  0
 13 14  1  0
 14 15  1  0
 15 16  2  0
 15 17  1  0
 17 18  2  0
 18 19  1  0
 19 20  2  0
 20 21  1  0
 21 22  1  0
 22 23  1  0
 22 24  1  0
 22 25  1  0
 25 26  1  0
 20 27  1  0
 27 28  2  0
 28 29  1  0
 29 30  1  0
 30 31  1  0
 31 32  1  0
 32 33  1  0
 33 34  1  0
 32 35  1  0
 35 36  1  0
 13 37  2  0
 37  9  1  0
 28 17  1  0
 34 29  1  0
 36 32  1  0
  1 38  1  0
  1 39  1  0
  1 40  1  0
  3 41  1  0
  3 42  1  0
  3 43  1  0
  4 44  1  0
  4 45  1  0
  4 46  1  0
  5 47  1  0
 10 48  1  0
 11 49  1  0
 12 50  1  0
 14 51  1  0
 19 52  1  0
 21 53  1  0
 23 54  1  0
 23 55  1  0
 23 56  1  0
 24 57  1  0
 24 58  1  0
 24 59  1  0
 25 60  1  0
 25 61  1  0
 26 62  1  0
 30 63  1  0
 30 64  1  0
 31 65  1  0
 31 66  1  0
 33 67  1  0
 33 68  1  0
 34 69  1  0
 34 70  1  0
 35 71  1  0
 35 72  1  0
 36 73  1  0
 36 74  1  0
M  END
$$$$

