
     RDKit          3D

 72 76  0  0  0  0  0  0  0  0999 V2000
  128.8620  116.6040  131.1440 O   0  0  0  0  0  0  0  0  0  0  0  0
  129.7340  115.9310  131.6840 C   0  0  0  0  0  0  0  0  0  0  0  0
  129.6810  115.4140  132.9610 N   0  0  0  0  0  0  0  0  0  0  0  0
  128.6520  115.5200  133.9160 C   0  0  0  0  0  0  0  0  0  0  0  0
  127.4090  114.9900  133.5660 C   0  0  0  0  0  0  0  0  0  0  0  0
  126.3450  115.0570  134.4600 C   0  0  0  0  0  0  0  0  0  0  0  0
  126.5190  115.6570  135.7090 C   0  0  0  0  0  0  0  0  0  0  0  0
  127.7500  116.2070  136.1010 C   0  0  0  0  0  0  0  0  0  0  0  0
  127.9160  116.7970  137.3510 N   0  0  0  0  0  0  0  0  0  0  0  0
  127.9790  118.2580  137.4850 C   0  0  0  0  0  0  0  0  0  0  0  0
  128.7440  118.6190  138.7470 C   0  0  0  0  0  0  0  0  0  0  0  0
  128.0550  118.0320  139.9600 C   0  0  0  0  0  0  0  0  0  0  0  0
  127.2410  118.9710  140.5170 F   0  0  0  0  0  0  0  0  0  0  0  0
  129.0000  117.7620  140.9030 F   0  0  0  0  0  0  0  0  0  0  0  0
  127.2390  116.7840  139.7010 C   0  0  0  0  0  0  0  0  0  0  0  0
  127.8580  115.9820  138.5710 C   0  0  0  0  0  0  0  0  0  0  0  0
  128.8060  116.1180  135.1730 C   0  0  0  0  0  0  0  0  0  0  0  0
  131.0000  115.6420  130.9170 C   0  0  0  0  0  0  0  0  0  0  0  0
  131.3590  114.2840  130.8050 C   0  0  0  0  0  0  0  0  0  0  0  0
  132.4990  113.8920  130.1020 C   0  0  0  0  0  0  0  0  0  0  0  0
  133.3030  114.8520  129.5030 C   0  0  0  0  0  0  0  0  0  0  0  0
  134.4880  114.4910  128.8010 N   0  0  0  0  0  0  0  0  0  0  0  0
  134.7910  112.8710  128.4460 S   0  0  0  0  0  6  0  0  0  0  0  0
  134.3100  112.6790  127.0940 O   0  0  0  0  0  0  0  0  0  0  0  0
  134.3220  112.0380  129.5310 O   0  0  0  0  0  0  0  0  0  0  0  0
  136.5720  112.8110  128.4000 C   0  0  0  0  0  0  0  0  0  0  0  0
  137.1120  112.3840  129.7480 C   0  0  0  0  0  0  0  0  0  0  0  0
  137.1180  110.9600  129.8110 O   0  0  0  0  0  0  0  0  0  0  0  0
  132.9620  116.2040  129.5990 C   0  0  0  0  0  0  0  0  0  0  0  0
  131.8140  116.6290  130.3010 C   0  0  0  0  0  0  0  0  0  0  0  0
  131.5270  118.0130  130.4320 N   0  0  0  0  0  0  0  0  0  0  0  0
  132.1780  118.9150  129.4470 C   0  0  0  0  0  0  0  0  0  0  0  0
  133.1830  119.8720  130.0950 C   0  0  0  0  0  0  0  0  0  0  0  0
  132.5350  120.6870  131.1990 C   0  0  0  0  0  0  0  0  0  0  0  0
  131.4490  119.9550  131.9690 C   0  0  0  0  0  0  0  0  0  0  0  0
  131.6220  118.4370  131.8550 C   0  0  0  0  0  0  0  0  0  0  0  0
  132.3620  122.1790  130.9960 C   0  0  0  0  0  0  0  0  0  0  0  0
  133.4100  121.6770  131.9430 C   0  0  0  0  0  0  0  0  0  0  0  0
  130.4910  114.8530  133.2200 H   0  0  0  0  0  0  0  0  0  0  0  0
  127.2704  114.5186  132.5818 H   0  0  0  0  0  0  0  0  0  0  0  0
  125.3667  114.6373  134.1830 H   0  0  0  0  0  0  0  0  0  0  0  0
  125.6682  115.6999  136.4049 H   0  0  0  0  0  0  0  0  0  0  0  0
  128.4923  118.6845  136.6106 H   0  0  0  0  0  0  0  0  0  0  0  0
  126.9587  118.6646  137.5461 H   0  0  0  0  0  0  0  0  0  0  0  0
  129.7661  118.2181  138.6798 H   0  0  0  0  0  0  0  0  0  0  0  0
  128.7767  119.7140  138.8468 H   0  0  0  0  0  0  0  0  0  0  0  0
  127.2148  116.1692  140.6129 H   0  0  0  0  0  0  0  0  0  0  0  0
  126.2163  117.0744  139.4185 H   0  0  0  0  0  0  0  0  0  0  0  0
  128.8763  115.6781  138.8550 H   0  0  0  0  0  0  0  0  0  0  0  0
  127.2424  115.0904  138.3811 H   0  0  0  0  0  0  0  0  0  0  0  0
  129.7874  116.5333  135.4456 H   0  0  0  0  0  0  0  0  0  0  0  0
  130.7286  113.5183  131.2807 H   0  0  0  0  0  0  0  0  0  0  0  0
  132.7595  112.8262  130.0229 H   0  0  0  0  0  0  0  0  0  0  0  0
  135.3420  115.0050  129.0170 H   0  0  0  0  0  0  0  0  0  0  0  0
  136.8922  112.0891  127.6343 H   0  0  0  0  0  0  0  0  0  0  0  0
  136.9602  113.8110  128.1565 H   0  0  0  0  0  0  0  0  0  0  0  0
  138.1368  112.7638  129.8728 H   0  0  0  0  0  0  0  0  0  0  0  0
  136.4784  112.7907  130.5500 H   0  0  0  0  0  0  0  0  0  0  0  0
  137.9700  110.6630  129.4420 H   0  0  0  0  0  0  0  0  0  0  0  0
  133.6041  116.9550  129.1156 H   0  0  0  0  0  0  0  0  0  0  0  0
  132.7065  118.3007  128.7031 H   0  0  0  0  0  0  0  0  0  0  0  0
  131.3889  119.5258  128.9841 H   0  0  0  0  0  0  0  0  0  0  0  0
  134.0117  119.2871  130.5206 H   0  0  0  0  0  0  0  0  0  0  0  0
  133.5513  120.5638  129.3231 H   0  0  0  0  0  0  0  0  0  0  0  0
  131.5025  120.2444  133.0289 H   0  0  0  0  0  0  0  0  0  0  0  0
  130.4726  120.2290  131.5430 H   0  0  0  0  0  0  0  0  0  0  0  0
  132.6071  118.1529  132.2535 H   0  0  0  0  0  0  0  0  0  0  0  0
  130.8262  117.9415  132.4304 H   0  0  0  0  0  0  0  0  0  0  0  0
  132.6593  122.6415  130.0432 H   0  0  0  0  0  0  0  0  0  0  0  0
  131.5175  122.8795  131.0743 H   0  0  0  0  0  0  0  0  0  0  0  0
  134.4748  121.7716  131.6838 H   0  0  0  0  0  0  0  0  0  0  0  0
  133.6501  121.8578  133.0011 H   0  0  0  0  0  0  0  0  0  0  0  0
  1  2  2  0
  2  3  1  0
  3  4  1  0
  4  5  2  0
  5  6  1  0
  6  7  2  0
  7  8  1  0
  8  9  1  0
  9 10  1  0
 10 11  1  0
 11 12  1  0
 12 13  1  0
 12 14  1  0
 12 15  1  0
 15 16  1  0
  8 17  2  0
  2 18  1  0
 18 19  2  0
 19 20  1  0
 20 21  2  0
 21 22  1  0
 22 23  1  0
 23 24  2  0
 23 25  2  0
 23 26  1  0
 26 27  1  0
 27 28  1  0
 21 29  1  0
 29 30  2  0
 30 31  1  0
 31 32  1  0
 32 33  1  0
 33 34  1  0
 34 35  1  0
 35 36  1  0
 34 37  1  0
 37 38  1  0
 17  4  1  0
 30 18  1  0
 36 31  1  0
 16  9  1  0
 38 34  1  0
  3 39  1  0
  5 40  1  0
  6 41  1  0
  7 42  1  0
 10 43  1  0
 10 44  1  0
 11 45  1  0
 11 46  1  0
 15 47  1  0
 15 48  1  0
 16 49  1  0
 16 50  1  0
 17 51  1  0
 19 52  1  0
 20 53  1  0
 22 54  1  0
 26 55  1  0
 26 56  1  0
 27 57  1  0
 27 58  1  0
 28 59  1  0
 29 60  1  0
 32 61  1  0
 32 62  1  0
 33 63  1  0
 33 64  1  0
 35 65  1  0
 35 66  1  0
 36 67  1  0
 36 68  1  0
 37 69  1  0
 37 70  1  0
 38 71  1  0
 38 72  1  0
M  END
$$$$

     RDKit          3D

 72 76  0  0  0  0  0  0  0  0999 V2000
  128.7220  116.3370  130.8730 O   0  0  0  0  0  0  0  0  0  0  0  0
  129.5920  115.7430  131.5010 C   0  0  0  0  0  0  0  0  0  0  0  0
  129.5050  115.3370  132.8150 N   0  0  0  0  0  0  0  0  0  0  0  0
  128.4370  115.4920  133.7200 C   0  0  0  0  0  0  0  0  0  0  0  0
  127.1850  115.0350  133.3040 C   0  0  0  0  0  0  0  0  0  0  0  0
  126.0840  115.1540  134.1450 C   0  0  0  0  0  0  0  0  0  0  0  0
  126.2280  115.7320  135.4080 C   0  0  0  0  0  0  0  0  0  0  0  0
  127.4670  116.2090  135.8660 C   0  0  0  0  0  0  0  0  0  0  0  0
  127.6020  116.7780  137.1300 N   0  0  0  0  0  0  0  0  0  0  0  0
  127.6540  115.9310  138.3280 C   0  0  0  0  0  0  0  0  0  0  0  0
  127.1940  116.7290  139.5350 C   0  0  0  0  0  0  0  0  0  0  0  0
  128.0860  117.9370  139.7330 C   0  0  0  0  0  0  0  0  0  0  0  0
  129.0520  117.6400  140.6450 F   0  0  0  0  0  0  0  0  0  0  0  0
  127.3450  118.9310  140.2950 F   0  0  0  0  0  0  0  0  0  0  0  0
  128.7540  118.4600  138.4800 C   0  0  0  0  0  0  0  0  0  0  0  0
  127.8660  118.2150  137.2740 C   0  0  0  0  0  0  0  0  0  0  0  0
  128.5610  116.0690  134.9900 C   0  0  0  0  0  0  0  0  0  0  0  0
  130.8950  115.4290  130.8090 C   0  0  0  0  0  0  0  0  0  0  0  0
  131.2490  114.0680  130.7440 C   0  0  0  0  0  0  0  0  0  0  0  0
  132.4220  113.6540  130.1110 C   0  0  0  0  0  0  0  0  0  0  0  0
  133.2630  114.5960  129.5350 C   0  0  0  0  0  0  0  0  0  0  0  0
  134.4810  114.2130  128.9050 N   0  0  0  0  0  0  0  0  0  0  0  0
  135.5140  113.1230  129.6710 S   0  0  0  0  0  6  0  0  0  0  0  0
  134.7870  111.8720  129.7160 O   0  0  0  0  0  0  0  0  0  0  0  0
  136.0470  113.7210  130.8750 O   0  0  0  0  0  0  0  0  0  0  0  0
  136.8320  112.9400  128.4860 C   0  0  0  0  0  0  0  0  0  0  0  0
  137.9230  112.0600  129.0540 C   0  0  0  0  0  0  0  0  0  0  0  0
  137.3240  111.0380  129.8460 O   0  0  0  0  0  0  0  0  0  0  0  0
  132.9270  115.9520  129.5840 C   0  0  0  0  0  0  0  0  0  0  0  0
  131.7460  116.3980  130.2160 C   0  0  0  0  0  0  0  0  0  0  0  0
  131.4630  117.7870  130.3020 N   0  0  0  0  0  0  0  0  0  0  0  0
  132.1440  118.6590  129.3100 C   0  0  0  0  0  0  0  0  0  0  0  0
  133.1360  119.6290  129.9580 C   0  0  0  0  0  0  0  0  0  0  0  0
  132.4630  120.4760  131.0220 C   0  0  0  0  0  0  0  0  0  0  0  0
  131.3540  119.7690  131.7840 C   0  0  0  0  0  0  0  0  0  0  0  0
  131.5230  118.2480  131.7150 C   0  0  0  0  0  0  0  0  0  0  0  0
  132.3030  121.9620  130.7750 C   0  0  0  0  0  0  0  0  0  0  0  0
  133.3230  121.4820  131.7620 C   0  0  0  0  0  0  0  0  0  0  0  0
  130.3200  114.8280  133.1520 H   0  0  0  0  0  0  0  0  0  0  0  0
  127.0694  114.5800  132.3092 H   0  0  0  0  0  0  0  0  0  0  0  0
  125.0988  114.7925  133.8151 H   0  0  0  0  0  0  0  0  0  0  0  0
  125.3473  115.8160  136.0618 H   0  0  0  0  0  0  0  0  0  0  0  0
  126.9944  115.0615  138.1907 H   0  0  0  0  0  0  0  0  0  0  0  0
  128.6866  115.5875  138.4885 H   0  0  0  0  0  0  0  0  0  0  0  0
  126.1584  117.0640  139.3762 H   0  0  0  0  0  0  0  0  0  0  0  0
  127.2489  116.0913  140.4296 H   0  0  0  0  0  0  0  0  0  0  0  0
  128.9326  119.5401  138.5868 H   0  0  0  0  0  0  0  0  0  0  0  0
  129.7097  117.9349  138.3358 H   0  0  0  0  0  0  0  0  0  0  0  0
  126.9137  118.7489  137.4081 H   0  0  0  0  0  0  0  0  0  0  0  0
  128.3745  118.5816  136.3701 H   0  0  0  0  0  0  0  0  0  0  0  0
  129.5492  116.4260  135.3154 H   0  0  0  0  0  0  0  0  0  0  0  0
  130.5884  113.3164  131.2009 H   0  0  0  0  0  0  0  0  0  0  0  0
  132.6790  112.5853  130.0688 H   0  0  0  0  0  0  0  0  0  0  0  0
  134.9900  114.9270  128.3840 H   0  0  0  0  0  0  0  0  0  0  0  0
  136.4352  112.4811  127.5684 H   0  0  0  0  0  0  0  0  0  0  0  0
  137.2511  113.9311  128.2577 H   0  0  0  0  0  0  0  0  0  0  0  0
  138.4948  111.6036  128.2326 H   0  0  0  0  0  0  0  0  0  0  0  0
  138.6035  112.6621  129.6739 H   0  0  0  0  0  0  0  0  0  0  0  0
  137.4690  111.2790  130.7790 H   0  0  0  0  0  0  0  0  0  0  0  0
  133.5986  116.6889  129.1192 H   0  0  0  0  0  0  0  0  0  0  0  0
  132.6889  118.0224  128.5974 H   0  0  0  0  0  0  0  0  0  0  0  0
  131.3704  119.2600  128.8097 H   0  0  0  0  0  0  0  0  0  0  0  0
  133.9505  119.0526  130.4209 H   0  0  0  0  0  0  0  0  0  0  0  0
  133.5277  120.2981  129.1777 H   0  0  0  0  0  0  0  0  0  0  0  0
  131.3821  120.0865  132.8368 H   0  0  0  0  0  0  0  0  0  0  0  0
  130.3898  120.0353  131.3264 H   0  0  0  0  0  0  0  0  0  0  0  0
  132.4961  117.9708  132.1464 H   0  0  0  0  0  0  0  0  0  0  0  0
  130.7104  117.7709  132.2825 H   0  0  0  0  0  0  0  0  0  0  0  0
  132.6274  122.3974  129.8183 H   0  0  0  0  0  0  0  0  0  0  0  0
  131.4601  122.6678  130.8123 H   0  0  0  0  0  0  0  0  0  0  0  0
  134.3947  121.5652  131.5285 H   0  0  0  0  0  0  0  0  0  0  0  0
  133.5362  121.6904  132.8208 H   0  0  0  0  0  0  0  0  0  0  0  0
  1  2  2  0
  2  3  1  0
  3  4  1  0
  4  5  2  0
  5  6  1  0
  6  7  2  0
  7  8  1  0
  8  9  1  0
  9 10  1  0
 10 11  1  0
 11 12  1  0
 12 13  1  0
 12 14  1  0
 12 15  1  0
 15 16  1  0
  8 17  2  0
  2 18  1  0
 18 19  2  0
 19 20  1  0
 20 21  2  0
 21 22  1  0
 22 23  1  0
 23 24  2  0
 23 25  2  0
 23 26  1  0
 26 27  1  0
 27 28  1  0
 21 29  1  0
 29 30  2  0
 30 31  1  0
 31 32  1  0
 32 33  1  0
 33 34  1  0
 34 35  1  0
 35 36  1  0
 34 37  1  0
 37 38  1  0
 17  4  1  0
 30 18  1  0
 36 31  1  0
 16  9  1  0
 38 34  1  0
  3 39  1  0
  5 40  1  0
  6 41  1  0
  7 42  1  0
 10 43  1  0
 10 44  1  0
 11 45  1  0
 11 46  1  0
 15 47  1  0
 15 48  1  0
 16 49  1  0
 16 50  1  0
 17 51  1  0
 19 52  1  0
 20 53  1  0
 22 54  1  0
 26 55  1  0
 26 56  1  0
 27 57  1  0
 27 58  1  0
 28 59  1  0
 29 60  1  0
 32 61  1  0
 32 62  1  0
 33 63  1  0
 33 64  1  0
 35 65  1  0
 35 66  1  0
 36 67  1  0
 36 68  1  0
 37 69  1  0
 37 70  1  0
 38 71  1  0
 38 72  1  0
M  END
$$$$

     RDKit          3D

 72 76  0  0  0  0  0  0  0  0999 V2000
  131.6210  119.4810  130.9320 O   0  0  0  0  0  0  0  0  0  0  0  0
  131.5370  118.3500  131.4000 C   0  0  0  0  0  0  0  0  0  0  0  0
  131.0660  118.0280  132.6550 N   0  0  0  0  0  0  0  0  0  0  0  0
  130.5790  118.8820  133.6630 C   0  0  0  0  0  0  0  0  0  0  0  0
  130.6500  120.2540  133.4170 C   0  0  0  0  0  0  0  0  0  0  0  0
  130.1870  121.1590  134.3670 C   0  0  0  0  0  0  0  0  0  0  0  0
  129.6510  120.6950  135.5710 C   0  0  0  0  0  0  0  0  0  0  0  0
  129.5640  119.3240  135.8620 C   0  0  0  0  0  0  0  0  0  0  0  0
  129.0220  118.8710  137.0620 N   0  0  0  0  0  0  0  0  0  0  0  0
  127.7330  118.1670  137.0800 C   0  0  0  0  0  0  0  0  0  0  0  0
  127.0880  118.3250  138.4460 C   0  0  0  0  0  0  0  0  0  0  0  0
  127.9900  117.7510  139.5180 C   0  0  0  0  0  0  0  0  0  0  0  0
  127.6100  116.4730  139.7920 F   0  0  0  0  0  0  0  0  0  0  0  0
  127.7860  118.4490  140.6690 F   0  0  0  0  0  0  0  0  0  0  0  0
  129.4670  117.7510  139.1900 C   0  0  0  0  0  0  0  0  0  0  0  0
  129.8040  118.9350  138.3020 C   0  0  0  0  0  0  0  0  0  0  0  0
  130.0390  118.4370  134.8760 C   0  0  0  0  0  0  0  0  0  0  0  0
  132.0000  117.1850  130.5610 C   0  0  0  0  0  0  0  0  0  0  0  0
  133.0850  117.4370  129.6990 C   0  0  0  0  0  0  0  0  0  0  0  0
  133.6140  116.4320  128.8880 C   0  0  0  0  0  0  0  0  0  0  0  0
  133.0640  115.1590  128.9220 C   0  0  0  0  0  0  0  0  0  0  0  0
  133.5600  114.1160  128.0880 N   0  0  0  0  0  0  0  0  0  0  0  0
  134.6630  113.0010  128.7070 S   0  0  0  0  0  6  0  0  0  0  0  0
  135.4900  112.6160  127.5830 O   0  0  0  0  0  0  0  0  0  0  0  0
  133.9640  112.0100  129.4950 O   0  0  0  0  0  0  0  0  0  0  0  0
  135.6590  114.0030  129.7930 C   0  0  0  0  0  0  0  0  0  0  0  0
  136.4280  113.1220  130.7530 C   0  0  0  0  0  0  0  0  0  0  0  0
  136.8280  111.9370  130.0700 O   0  0  0  0  0  0  0  0  0  0  0  0
  131.9900  114.8870  129.7730 C   0  0  0  0  0  0  0  0  0  0  0  0
  131.4360  115.8830  130.6060 C   0  0  0  0  0  0  0  0  0  0  0  0
  130.3070  115.5920  131.4160 N   0  0  0  0  0  0  0  0  0  0  0  0
  130.3030  114.2650  132.0850 C   0  0  0  0  0  0  0  0  0  0  0  0
  129.1840  113.3510  131.5790 C   0  0  0  0  0  0  0  0  0  0  0  0
  127.8250  114.0120  131.7240 C   0  0  0  0  0  0  0  0  0  0  0  0
  127.8340  115.5200  131.5350 C   0  0  0  0  0  0  0  0  0  0  0  0
  129.0480  115.9640  130.7150 C   0  0  0  0  0  0  0  0  0  0  0  0
  126.8390  113.4390  132.7220 C   0  0  0  0  0  0  0  0  0  0  0  0
  126.6130  113.2300  131.2550 C   0  0  0  0  0  0  0  0  0  0  0  0
  131.0430  117.0290  132.8510 H   0  0  0  0  0  0  0  0  0  0  0  0
  131.0729  120.6206  132.4700 H   0  0  0  0  0  0  0  0  0  0  0  0
  130.2429  122.2398  134.1702 H   0  0  0  0  0  0  0  0  0  0  0  0
  129.2874  121.4233  136.3109 H   0  0  0  0  0  0  0  0  0  0  0  0
  127.0719  118.5931  136.3110 H   0  0  0  0  0  0  0  0  0  0  0  0
  127.8960  117.0990  136.8731 H   0  0  0  0  0  0  0  0  0  0  0  0
  126.9187  119.3932  138.6468 H   0  0  0  0  0  0  0  0  0  0  0  0
  126.1295  117.7853  138.4557 H   0  0  0  0  0  0  0  0  0  0  0  0
  130.0468  117.8188  140.1224 H   0  0  0  0  0  0  0  0  0  0  0  0
  129.7181  116.8204  138.6600 H   0  0  0  0  0  0  0  0  0  0  0  0
  129.5676  119.8683  138.8340 H   0  0  0  0  0  0  0  0  0  0  0  0
  130.8755  118.9076  138.0549 H   0  0  0  0  0  0  0  0  0  0  0  0
  129.9837  117.3549  135.0659 H   0  0  0  0  0  0  0  0  0  0  0  0
  133.5238  118.4451  129.6644 H   0  0  0  0  0  0  0  0  0  0  0  0
  134.4640  116.6485  128.2242 H   0  0  0  0  0  0  0  0  0  0  0  0
  133.7440  114.3390  127.1100 H   0  0  0  0  0  0  0  0  0  0  0  0
  136.3676  114.5944  129.1946 H   0  0  0  0  0  0  0  0  0  0  0  0
  135.0028  114.6740  130.3667 H   0  0  0  0  0  0  0  0  0  0  0  0
  137.3177  113.6582  131.1148 H   0  0  0  0  0  0  0  0  0  0  0  0
  135.7920  112.8614  131.6118 H   0  0  0  0  0  0  0  0  0  0  0  0
  137.4160  111.4460  130.6730 H   0  0  0  0  0  0  0  0  0  0  0  0
  131.5658  113.8723  129.7945 H   0  0  0  0  0  0  0  0  0  0  0  0
  131.2696  113.7741  131.8986 H   0  0  0  0  0  0  0  0  0  0  0  0
  130.1330  114.4349  133.1584 H   0  0  0  0  0  0  0  0  0  0  0  0
  129.3601  113.1226  130.5175 H   0  0  0  0  0  0  0  0  0  0  0  0
  129.1886  112.4302  132.1807 H   0  0  0  0  0  0  0  0  0  0  0  0
  126.9157  115.8220  131.0101 H   0  0  0  0  0  0  0  0  0  0  0  0
  127.8872  115.9965  132.5250 H   0  0  0  0  0  0  0  0  0  0  0  0
  129.0212  115.4725  129.7313 H   0  0  0  0  0  0  0  0  0  0  0  0
  129.0164  117.0565  130.5905 H   0  0  0  0  0  0  0  0  0  0  0  0
  127.1323  112.5911  133.3584 H   0  0  0  0  0  0  0  0  0  0  0  0
  126.2415  113.8538  133.5472 H   0  0  0  0  0  0  0  0  0  0  0  0
  126.7412  112.2292  130.8168 H   0  0  0  0  0  0  0  0  0  0  0  0
  125.7822  113.4285  130.5620 H   0  0  0  0  0  0  0  0  0  0  0  0
  1  2  2  0
  2  3  1  0
  3  4  1  0
  4  5  2  0
  5  6  1  0
  6  7  2  0
  7  8  1  0
  8  9  1  0
  9 10  1  0
 10 11  1  0
 11 12  1  0
 12 13  1  0
 12 14  1  0
 12 15  1  0
 15 16  1  0
  8 17  2  0
  2 18  1  0
 18 19  2  0
 19 20  1  0
 20 21  2  0
 21 22  1  0
 22 23  1  0
 23 24  2  0
 23 25  2  0
 23 26  1  0
 26 27  1  0
 27 28  1  0
 21 29  1  0
 29 30  2  0
 30 31  1  0
 31 32  1  0
 32 33  1  0
 33 34  1  0
 34 35  1  0
 35 36  1  0
 34 37  1  0
 37 38  1  0
 17  4  1  0
 30 18  1  0
 36 31  1  0
 16  9  1  0
 38 34  1  0
  3 39  1  0
  5 40  1  0
  6 41  1  0
  7 42  1  0
 10 43  1  0
 10 44  1  0
 11 45  1  0
 11 46  1  0
 15 47  1  0
 15 48  1  0
 16 49  1  0
 16 50  1  0
 17 51  1  0
 19 52  1  0
 20 53  1  0
 22 54  1  0
 26 55  1  0
 26 56  1  0
 27 57  1  0
 27 58  1  0
 28 59  1  0
 29 60  1  0
 32 61  1  0
 32 62  1  0
 33 63  1  0
 33 64  1  0
 35 65  1  0
 35 66  1  0
 36 67  1  0
 36 68  1  0
 37 69  1  0
 37 70  1  0
 38 71  1  0
 38 72  1  0
M  END
$$$$

     RDKit          3D

 72 76  0  0  0  0  0  0  0  0999 V2000
  129.1710  116.9790  131.2820 O   0  0  0  0  0  0  0  0  0  0  0  0
  130.3770  116.9510  131.5080 C   0  0  0  0  0  0  0  0  0  0  0  0
  131.0260  117.6340  132.5130 N   0  0  0  0  0  0  0  0  0  0  0  0
  130.4860  118.4900  133.4930 C   0  0  0  0  0  0  0  0  0  0  0  0
  130.4840  119.8560  133.2060 C   0  0  0  0  0  0  0  0  0  0  0  0
  129.9670  120.7620  134.1250 C   0  0  0  0  0  0  0  0  0  0  0  0
  129.4500  120.3060  135.3400 C   0  0  0  0  0  0  0  0  0  0  0  0
  129.4360  118.9420  135.6730 C   0  0  0  0  0  0  0  0  0  0  0  0
  128.9120  118.4960  136.8830 N   0  0  0  0  0  0  0  0  0  0  0  0
  127.5320  117.9980  136.9610 C   0  0  0  0  0  0  0  0  0  0  0  0
  127.0140  118.1590  138.3790 C   0  0  0  0  0  0  0  0  0  0  0  0
  127.8840  117.3830  139.3440 C   0  0  0  0  0  0  0  0  0  0  0  0
  127.3280  116.1620  139.5740 F   0  0  0  0  0  0  0  0  0  0  0  0
  127.8720  118.0230  140.5460 F   0  0  0  0  0  0  0  0  0  0  0  0
  129.3180  117.1800  138.9030 C   0  0  0  0  0  0  0  0  0  0  0  0
  129.7760  118.3560  138.0610 C   0  0  0  0  0  0  0  0  0  0  0  0
  129.9640  118.0530  134.7160 C   0  0  0  0  0  0  0  0  0  0  0  0
  131.2600  116.1200  130.6110 C   0  0  0  0  0  0  0  0  0  0  0  0
  132.2720  116.8160  129.9210 C   0  0  0  0  0  0  0  0  0  0  0  0
  133.1620  116.1510  129.0780 C   0  0  0  0  0  0  0  0  0  0  0  0
  133.0530  114.7780  128.9060 C   0  0  0  0  0  0  0  0  0  0  0  0
  133.9270  114.0710  128.0320 N   0  0  0  0  0  0  0  0  0  0  0  0
  135.0350  112.9690  128.6650 S   0  0  0  0  0  6  0  0  0  0  0  0
  135.8830  112.5970  127.5520 O   0  0  0  0  0  0  0  0  0  0  0  0
  134.3380  111.9670  129.4400 O   0  0  0  0  0  0  0  0  0  0  0  0
  136.0030  113.9820  129.7670 C   0  0  0  0  0  0  0  0  0  0  0  0
  136.5380  113.1430  130.9060 C   0  0  0  0  0  0  0  0  0  0  0  0
  137.2650  112.0430  130.3660 O   0  0  0  0  0  0  0  0  0  0  0  0
  132.0590  114.0680  129.5830 C   0  0  0  0  0  0  0  0  0  0  0  0
  131.1460  114.7140  130.4450 C   0  0  0  0  0  0  0  0  0  0  0  0
  130.1090  113.9750  131.0720 N   0  0  0  0  0  0  0  0  0  0  0  0
  128.8100  113.9250  130.3530 C   0  0  0  0  0  0  0  0  0  0  0  0
  127.6850  114.6320  131.1140 C   0  0  0  0  0  0  0  0  0  0  0  0
  127.5280  114.0680  132.5150 C   0  0  0  0  0  0  0  0  0  0  0  0
  128.8250  113.6100  133.1590 C   0  0  0  0  0  0  0  0  0  0  0  0
  130.0320  114.3050  132.5210 C   0  0  0  0  0  0  0  0  0  0  0  0
  126.2700  113.2930  132.8500 C   0  0  0  0  0  0  0  0  0  0  0  0
  126.4550  114.6760  133.3980 C   0  0  0  0  0  0  0  0  0  0  0  0
  132.0280  117.4580  132.5600 H   0  0  0  0  0  0  0  0  0  0  0  0
  130.8925  120.2165  132.2504 H   0  0  0  0  0  0  0  0  0  0  0  0
  129.9650  121.8378  133.8955 H   0  0  0  0  0  0  0  0  0  0  0  0
  129.0427  121.0355  136.0555 H   0  0  0  0  0  0  0  0  0  0  0  0
  126.8958  118.5718  136.2711 H   0  0  0  0  0  0  0  0  0  0  0  0
  127.5103  116.9342  136.6818 H   0  0  0  0  0  0  0  0  0  0  0  0
  127.0287  119.2243  138.6525 H   0  0  0  0  0  0  0  0  0  0  0  0
  125.9857  117.7721  138.4318 H   0  0  0  0  0  0  0  0  0  0  0  0
  129.9628  117.0947  139.7901 H   0  0  0  0  0  0  0  0  0  0  0  0
  129.3833  116.2604  138.3029 H   0  0  0  0  0  0  0  0  0  0  0  0
  129.7249  119.2761  138.6617 H   0  0  0  0  0  0  0  0  0  0  0  0
  130.8111  118.1829  137.7314 H   0  0  0  0  0  0  0  0  0  0  0  0
  129.9661  116.9757  134.9382 H   0  0  0  0  0  0  0  0  0  0  0  0
  132.3619  117.9047  130.0496 H   0  0  0  0  0  0  0  0  0  0  0  0
  133.9476  116.7126  128.5513 H   0  0  0  0  0  0  0  0  0  0  0  0
  134.3000  114.5740  127.2260 H   0  0  0  0  0  0  0  0  0  0  0  0
  136.8448  114.4220  129.2122 H   0  0  0  0  0  0  0  0  0  0  0  0
  135.3666  114.7809  130.1753 H   0  0  0  0  0  0  0  0  0  0  0  0
  137.2039  113.7536  131.5335 H   0  0  0  0  0  0  0  0  0  0  0  0
  135.7041  112.7733  131.5207 H   0  0  0  0  0  0  0  0  0  0  0  0
  136.6930  111.6260  129.6960 H   0  0  0  0  0  0  0  0  0  0  0  0
  131.9856  112.9796  129.4413 H   0  0  0  0  0  0  0  0  0  0  0  0
  128.9312  114.4105  129.3734 H   0  0  0  0  0  0  0  0  0  0  0  0
  128.5277  112.8668  130.2508 H   0  0  0  0  0  0  0  0  0  0  0  0
  127.9184  115.7047  131.1835 H   0  0  0  0  0  0  0  0  0  0  0  0
  126.7433  114.4734  130.5681 H   0  0  0  0  0  0  0  0  0  0  0  0
  128.7978  113.8501  134.2321 H   0  0  0  0  0  0  0  0  0  0  0  0
  128.9262  112.5251  133.0084 H   0  0  0  0  0  0  0  0  0  0  0  0
  129.9295  115.3937  132.6407 H   0  0  0  0  0  0  0  0  0  0  0  0
  130.9499  113.9572  133.0174 H   0  0  0  0  0  0  0  0  0  0  0  0
  125.5158  113.1077  132.0710 H   0  0  0  0  0  0  0  0  0  0  0  0
  126.0610  112.3065  133.2894 H   0  0  0  0  0  0  0  0  0  0  0  0
  125.8368  115.5037  133.0201 H   0  0  0  0  0  0  0  0  0  0  0  0
  126.4379  115.1208  134.4039 H   0  0  0  0  0  0  0  0  0  0  0  0
  1  2  2  0
  2  3  1  0
  3  4  1  0
  4  5  2  0
  5  6  1  0
  6  7  2  0
  7  8  1  0
  8  9  1  0
  9 10  1  0
 10 11  1  0
 11 12  1  0
 12 13  1  0
 12 14  1  0
 12 15  1  0
 15 16  1  0
  8 17  2  0
  2 18  1  0
 18 19  2  0
 19 20  1  0
 20 21  2  0
 21 22  1  0
 22 23  1  0
 23 24  2  0
 23 25  2  0
 23 26  1  0
 26 27  1  0
 27 28  1  0
 21 29  1  0
 29 30  2  0
 30 31  1  0
 31 32  1  0
 32 33  1  0
 33 34  1  0
 34 35  1  0
 35 36  1  0
 34 37  1  0
 37 38  1  0
 17  4  1  0
 30 18  1  0
 36 31  1  0
 16  9  1  0
 38 34  1  0
  3 39  1  0
  5 40  1  0
  6 41  1  0
  7 42  1  0
 10 43  1  0
 10 44  1  0
 11 45  1  0
 11 46  1  0
 15 47  1  0
 15 48  1  0
 16 49  1  0
 16 50  1  0
 17 51  1  0
 19 52  1  0
 20 53  1  0
 22 54  1  0
 26 55  1  0
 26 56  1  0
 27 57  1  0
 27 58  1  0
 28 59  1  0
 29 60  1  0
 32 61  1  0
 32 62  1  0
 33 63  1  0
 33 64  1  0
 35 65  1  0
 35 66  1  0
 36 67  1  0
 36 68  1  0
 37 69  1  0
 37 70  1  0
 38 71  1  0
 38 72  1  0
M  END
$$$$

     RDKit          3D

 72 76  0  0  0  0  0  0  0  0999 V2000
  128.7200  116.1710  130.9280 O   0  0  0  0  0  0  0  0  0  0  0  0
  129.6480  115.6730  131.5570 C   0  0  0  0  0  0  0  0  0  0  0  0
  129.6390  115.3650  132.9000 N   0  0  0  0  0  0  0  0  0  0  0  0
  128.6030  115.5320  133.8400 C   0  0  0  0  0  0  0  0  0  0  0  0
  127.3330  115.0890  133.4650 C   0  0  0  0  0  0  0  0  0  0  0  0
  126.2620  115.2210  134.3420 C   0  0  0  0  0  0  0  0  0  0  0  0
  126.4540  115.7990  135.5990 C   0  0  0  0  0  0  0  0  0  0  0  0
  127.7120  116.2620  136.0150 C   0  0  0  0  0  0  0  0  0  0  0  0
  127.8960  116.8300  137.2730 N   0  0  0  0  0  0  0  0  0  0  0  0
  127.9540  118.2890  137.4320 C   0  0  0  0  0  0  0  0  0  0  0  0
  128.7380  118.6320  138.6870 C   0  0  0  0  0  0  0  0  0  0  0  0
  128.0730  118.0190  139.9020 C   0  0  0  0  0  0  0  0  0  0  0  0
  127.2630  118.9440  140.4880 F   0  0  0  0  0  0  0  0  0  0  0  0
  129.0350  117.7380  140.8230 F   0  0  0  0  0  0  0  0  0  0  0  0
  127.2590  116.7710  139.6340 C   0  0  0  0  0  0  0  0  0  0  0  0
  127.8630  115.9930  138.4790 C   0  0  0  0  0  0  0  0  0  0  0  0
  128.7750  116.1100  135.1040 C   0  0  0  0  0  0  0  0  0  0  0  0
  130.9350  115.3770  130.8300 C   0  0  0  0  0  0  0  0  0  0  0  0
  131.2930  114.0180  130.7340 C   0  0  0  0  0  0  0  0  0  0  0  0
  132.4530  113.6190  130.0680 C   0  0  0  0  0  0  0  0  0  0  0  0
  133.2770  114.5740  129.4890 C   0  0  0  0  0  0  0  0  0  0  0  0
  134.4810  114.2060  128.8250 N   0  0  0  0  0  0  0  0  0  0  0  0
  135.9700  114.5670  129.5280 S   0  0  0  0  0  6  0  0  0  0  0  0
  135.8340  114.2000  130.9230 O   0  0  0  0  0  0  0  0  0  0  0  0
  136.3820  115.8980  129.1430 O   0  0  0  0  0  0  0  0  0  0  0  0
  137.0590  113.3820  128.7620 C   0  0  0  0  0  0  0  0  0  0  0  0
  136.9060  112.0310  129.4270 C   0  0  0  0  0  0  0  0  0  0  0  0
  135.6000  111.9400  129.9910 O   0  0  0  0  0  0  0  0  0  0  0  0
  132.9380  115.9270  129.5690 C   0  0  0  0  0  0  0  0  0  0  0  0
  131.7700  116.3590  130.2340 C   0  0  0  0  0  0  0  0  0  0  0  0
  131.4840  117.7450  130.3500 N   0  0  0  0  0  0  0  0  0  0  0  0
  132.1130  118.6320  129.3380 C   0  0  0  0  0  0  0  0  0  0  0  0
  133.1290  119.6000  129.9510 C   0  0  0  0  0  0  0  0  0  0  0  0
  132.5030  120.4310  131.0560 C   0  0  0  0  0  0  0  0  0  0  0  0
  131.4340  119.7080  131.8590 C   0  0  0  0  0  0  0  0  0  0  0  0
  131.6080  118.1890  131.7650 C   0  0  0  0  0  0  0  0  0  0  0  0
  132.3240  121.9190  130.8340 C   0  0  0  0  0  0  0  0  0  0  0  0
  133.3910  121.4330  131.7670 C   0  0  0  0  0  0  0  0  0  0  0  0
  130.4950  114.9270  133.2350 H   0  0  0  0  0  0  0  0  0  0  0  0
  127.1796  114.6351  132.4748 H   0  0  0  0  0  0  0  0  0  0  0  0
  125.2626  114.8699  134.0455 H   0  0  0  0  0  0  0  0  0  0  0  0
  125.5963  115.8939  136.2812 H   0  0  0  0  0  0  0  0  0  0  0  0
  128.4504  118.7336  136.5568 H   0  0  0  0  0  0  0  0  0  0  0  0
  126.9328  118.6889  137.5175 H   0  0  0  0  0  0  0  0  0  0  0  0
  129.7612  118.2386  138.5953 H   0  0  0  0  0  0  0  0  0  0  0  0
  128.7657  119.7252  138.8058 H   0  0  0  0  0  0  0  0  0  0  0  0
  127.2536  116.1396  140.5348 H   0  0  0  0  0  0  0  0  0  0  0  0
  126.2302  117.0608  139.3742 H   0  0  0  0  0  0  0  0  0  0  0  0
  128.8876  115.6898  138.7402 H   0  0  0  0  0  0  0  0  0  0  0  0
  127.2488  115.1017  138.2834 H   0  0  0  0  0  0  0  0  0  0  0  0
  129.7769  116.4579  135.3958 H   0  0  0  0  0  0  0  0  0  0  0  0
  130.6457  113.2562  131.1929 H   0  0  0  0  0  0  0  0  0  0  0  0
  132.7130  112.5522  130.0023 H   0  0  0  0  0  0  0  0  0  0  0  0
  134.5050  114.2850  127.8080 H   0  0  0  0  0  0  0  0  0  0  0  0
  136.8074  113.2931  127.6949 H   0  0  0  0  0  0  0  0  0  0  0  0
  138.0988  113.7231  128.8736 H   0  0  0  0  0  0  0  0  0  0  0  0
  137.0424  111.2344  128.6808 H   0  0  0  0  0  0  0  0  0  0  0  0
  137.6624  111.9165  130.2174 H   0  0  0  0  0  0  0  0  0  0  0  0
  135.6890  112.1230  130.9440 H   0  0  0  0  0  0  0  0  0  0  0  0
  133.5972  116.6739  129.1025 H   0  0  0  0  0  0  0  0  0  0  0  0
  132.6274  118.0069  128.5932 H   0  0  0  0  0  0  0  0  0  0  0  0
  131.3138  119.2342  128.8812 H   0  0  0  0  0  0  0  0  0  0  0  0
  133.9672  119.0226  130.3681 H   0  0  0  0  0  0  0  0  0  0  0  0
  133.4796  120.2808  129.1613 H   0  0  0  0  0  0  0  0  0  0  0  0
  131.5080  120.0137  132.9131 H   0  0  0  0  0  0  0  0  0  0  0  0
  130.4487  119.9733  131.4482 H   0  0  0  0  0  0  0  0  0  0  0  0
  132.6018  117.9126  132.1469 H   0  0  0  0  0  0  0  0  0  0  0  0
  130.8263  117.7000  132.3649 H   0  0  0  0  0  0  0  0  0  0  0  0
  132.6016  122.3672  129.8686 H   0  0  0  0  0  0  0  0  0  0  0  0
  131.4803  122.6197  130.9185 H   0  0  0  0  0  0  0  0  0  0  0  0
  134.4503  121.5249  131.4852 H   0  0  0  0  0  0  0  0  0  0  0  0
  133.6519  121.6302  132.8172 H   0  0  0  0  0  0  0  0  0  0  0  0
  1  2  2  0
  2  3  1  0
  3  4  1  0
  4  5  2  0
  5  6  1  0
  6  7  2  0
  7  8  1  0
  8  9  1  0
  9 10  1  0
 10 11  1  0
 11 12  1  0
 12 13  1  0
 12 14  1  0
 12 15  1  0
 15 16  1  0
  8 17  2  0
  2 18  1  0
 18 19  2  0
 19 20  1  0
 20 21  2  0
 21 22  1  0
 22 23  1  0
 23 24  2  0
 23 25  2  0
 23 26  1  0
 26 27  1  0
 27 28  1  0
 21 29  1  0
 29 30  2  0
 30 31  1  0
 31 32  1  0
 32 33  1  0
 33 34  1  0
 34 35  1  0
 35 36  1  0
 34 37  1  0
 37 38  1  0
 17  4  1  0
 30 18  1  0
 36 31  1  0
 16  9  1  0
 38 34  1  0
  3 39  1  0
  5 40  1  0
  6 41  1  0
  7 42  1  0
 10 43  1  0
 10 44  1  0
 11 45  1  0
 11 46  1  0
 15 47  1  0
 15 48  1  0
 16 49  1  0
 16 50  1  0
 17 51  1  0
 19 52  1  0
 20 53  1  0
 22 54  1  0
 26 55  1  0
 26 56  1  0
 27 57  1  0
 27 58  1  0
 28 59  1  0
 29 60  1  0
 32 61  1  0
 32 62  1  0
 33 63  1  0
 33 64  1  0
 35 65  1  0
 35 66  1  0
 36 67  1  0
 36 68  1  0
 37 69  1  0
 37 70  1  0
 38 71  1  0
 38 72  1  0
M  END
$$$$

     RDKit          3D

 72 76  0  0  0  0  0  0  0  0999 V2000
  131.3760  120.0120  132.8310 O   0  0  0  0  0  0  0  0  0  0  0  0
  130.8690  118.9100  133.0170 C   0  0  0  0  0  0  0  0  0  0  0  0
  131.0260  117.8030  132.2130 N   0  0  0  0  0  0  0  0  0  0  0  0
  131.7820  117.6660  131.0330 C   0  0  0  0  0  0  0  0  0  0  0  0
  131.8000  118.7580  130.1640 C   0  0  0  0  0  0  0  0  0  0  0  0
  132.5260  118.6960  128.9790 C   0  0  0  0  0  0  0  0  0  0  0  0
  133.2380  117.5390  128.6560 C   0  0  0  0  0  0  0  0  0  0  0  0
  133.2440  116.4150  129.4980 C   0  0  0  0  0  0  0  0  0  0  0  0
  133.9630  115.2680  129.1700 N   0  0  0  0  0  0  0  0  0  0  0  0
  135.2270  114.9600  129.8500 C   0  0  0  0  0  0  0  0  0  0  0  0
  136.0830  114.0790  128.9560 C   0  0  0  0  0  0  0  0  0  0  0  0
  135.3540  112.7910  128.6400 C   0  0  0  0  0  0  0  0  0  0  0  0
  135.7530  111.8210  129.5080 F   0  0  0  0  0  0  0  0  0  0  0  0
  135.7480  112.3640  127.4080 F   0  0  0  0  0  0  0  0  0  0  0  0
  133.8430  112.8750  128.6780 C   0  0  0  0  0  0  0  0  0  0  0  0
  133.3880  114.2630  128.2670 C   0  0  0  0  0  0  0  0  0  0  0  0
  132.5010  116.5140  130.6900 C   0  0  0  0  0  0  0  0  0  0  0  0
  129.9710  118.7230  134.2140 C   0  0  0  0  0  0  0  0  0  0  0  0
  130.0190  119.7390  135.1890 C   0  0  0  0  0  0  0  0  0  0  0  0
  129.2190  119.6860  136.3310 C   0  0  0  0  0  0  0  0  0  0  0  0
  128.3600  118.6120  136.5200 C   0  0  0  0  0  0  0  0  0  0  0  0
  127.5490  118.5110  137.6870 N   0  0  0  0  0  0  0  0  0  0  0  0
  127.9080  117.3550  138.8590 S   0  0  0  0  0  6  0  0  0  0  0  0
  128.0250  118.0920  140.1000 O   0  0  0  0  0  0  0  0  0  0  0  0
  128.9800  116.5030  138.3930 O   0  0  0  0  0  0  0  0  0  0  0  0
  126.4050  116.4010  138.9360 C   0  0  0  0  0  0  0  0  0  0  0  0
  126.4920  115.2180  137.9970 C   0  0  0  0  0  0  0  0  0  0  0  0
  126.3570  115.6830  136.6570 O   0  0  0  0  0  0  0  0  0  0  0  0
  128.2940  117.5960  135.5640 C   0  0  0  0  0  0  0  0  0  0  0  0
  129.0900  117.6250  134.3980 C   0  0  0  0  0  0  0  0  0  0  0  0
  129.0440  116.5480  133.4740 N   0  0  0  0  0  0  0  0  0  0  0  0
  127.9940  116.6250  132.4260 C   0  0  0  0  0  0  0  0  0  0  0  0
  126.9460  115.5160  132.5560 C   0  0  0  0  0  0  0  0  0  0  0  0
  127.5920  114.1430  132.5470 C   0  0  0  0  0  0  0  0  0  0  0  0
  128.9650  114.0880  133.1960 C   0  0  0  0  0  0  0  0  0  0  0  0
  129.1540  115.2440  134.1830 C   0  0  0  0  0  0  0  0  0  0  0  0
  127.3410  113.2290  131.3650 C   0  0  0  0  0  0  0  0  0  0  0  0
  126.6800  112.9390  132.6780 C   0  0  0  0  0  0  0  0  0  0  0  0
  130.5490  116.9680  132.5510 H   0  0  0  0  0  0  0  0  0  0  0  0
  131.2389  119.6697  130.4167 H   0  0  0  0  0  0  0  0  0  0  0  0
  132.5392  119.5585  128.2964 H   0  0  0  0  0  0  0  0  0  0  0  0
  133.8096  117.5071  127.7167 H   0  0  0  0  0  0  0  0  0  0  0  0
  135.7644  115.8952  130.0656 H   0  0  0  0  0  0  0  0  0  0  0  0
  135.0169  114.4316  130.7916 H   0  0  0  0  0  0  0  0  0  0  0  0
  136.2995  114.6133  128.0192 H   0  0  0  0  0  0  0  0  0  0  0  0
  137.0216  113.8416  129.4782 H   0  0  0  0  0  0  0  0  0  0  0  0
  133.4197  112.1331  127.9848 H   0  0  0  0  0  0  0  0  0  0  0  0
  133.4964  112.6707  129.7018 H   0  0  0  0  0  0  0  0  0  0  0  0
  133.7200  114.4654  127.2380 H   0  0  0  0  0  0  0  0  0  0  0  0
  132.2906  114.3142  128.3218 H   0  0  0  0  0  0  0  0  0  0  0  0
  132.4847  115.6551  131.3770 H   0  0  0  0  0  0  0  0  0  0  0  0
  130.7005  120.5907  135.0471 H   0  0  0  0  0  0  0  0  0  0  0  0
  129.2688  120.4917  137.0782 H   0  0  0  0  0  0  0  0  0  0  0  0
  126.5450  118.6530  137.5790 H   0  0  0  0  0  0  0  0  0  0  0  0
  126.2558  116.0394  139.9641 H   0  0  0  0  0  0  0  0  0  0  0  0
  125.5589  117.0370  138.6367 H   0  0  0  0  0  0  0  0  0  0  0  0
  127.4653  114.7202  138.1191 H   0  0  0  0  0  0  0  0  0  0  0  0
  125.6903  114.5003  138.2256 H   0  0  0  0  0  0  0  0  0  0  0  0
  125.9950  116.5860  136.7050 H   0  0  0  0  0  0  0  0  0  0  0  0
  127.6055  116.7530  135.7231 H   0  0  0  0  0  0  0  0  0  0  0  0
  127.4879  117.5984  132.5059 H   0  0  0  0  0  0  0  0  0  0  0  0
  128.4884  116.5020  131.4511 H   0  0  0  0  0  0  0  0  0  0  0  0
  126.3994  115.6486  133.5013 H   0  0  0  0  0  0  0  0  0  0  0  0
  126.2613  115.5831  131.6977 H   0  0  0  0  0  0  0  0  0  0  0  0
  129.0700  113.1347  133.7346 H   0  0  0  0  0  0  0  0  0  0  0  0
  129.7280  114.1724  132.4081 H   0  0  0  0  0  0  0  0  0  0  0  0
  128.3792  115.1873  134.9618 H   0  0  0  0  0  0  0  0  0  0  0  0
  130.1517  115.1667  134.6397 H   0  0  0  0  0  0  0  0  0  0  0  0
  126.7403  113.5839  130.5146 H   0  0  0  0  0  0  0  0  0  0  0  0
  127.9814  112.6582  130.6765 H   0  0  0  0  0  0  0  0  0  0  0  0
  125.5950  113.0816  132.7898 H   0  0  0  0  0  0  0  0  0  0  0  0
  126.6361  112.0684  133.3489 H   0  0  0  0  0  0  0  0  0  0  0  0
  1  2  2  0
  2  3  1  0
  3  4  1  0
  4  5  2  0
  5  6  1  0
  6  7  2  0
  7  8  1  0
  8  9  1  0
  9 10  1  0
 10 11  1  0
 11 12  1  0
 12 13  1  0
 12 14  1  0
 12 15  1  0
 15 16  1  0
  8 17  2  0
  2 18  1  0
 18 19  2  0
 19 20  1  0
 20 21  2  0
 21 22  1  0
 22 23  1  0
 23 24  2  0
 23 25  2  0
 23 26  1  0
 26 27  1  0
 27 28  1  0
 21 29  1  0
 29 30  2  0
 30 31  1  0
 31 32  1  0
 32 33  1  0
 33 34  1  0
 34 35  1  0
 35 36  1  0
 34 37  1  0
 37 38  1  0
 17  4  1  0
 30 18  1  0
 36 31  1  0
 16  9  1  0
 38 34  1  0
  3 39  1  0
  5 40  1  0
  6 41  1  0
  7 42  1  0
 10 43  1  0
 10 44  1  0
 11 45  1  0
 11 46  1  0
 15 47  1  0
 15 48  1  0
 16 49  1  0
 16 50  1  0
 17 51  1  0
 19 52  1  0
 20 53  1  0
 22 54  1  0
 26 55  1  0
 26 56  1  0
 27 57  1  0
 27 58  1  0
 28 59  1  0
 29 60  1  0
 32 61  1  0
 32 62  1  0
 33 63  1  0
 33 64  1  0
 35 65  1  0
 35 66  1  0
 36 67  1  0
 36 68  1  0
 37 69  1  0
 37 70  1  0
 38 71  1  0
 38 72  1  0
M  END
$$$$

     RDKit          3D

 72 76  0  0  0  0  0  0  0  0999 V2000
  129.3140  117.1280  131.0650 O   0  0  0  0  0  0  0  0  0  0  0  0
  130.4550  116.8740  131.4400 C   0  0  0  0  0  0  0  0  0  0  0  0
  131.0320  117.3030  132.6160 N   0  0  0  0  0  0  0  0  0  0  0  0
  130.4760  118.0980  133.6370 C   0  0  0  0  0  0  0  0  0  0  0  0
  130.7310  119.4690  133.5780 C   0  0  0  0  0  0  0  0  0  0  0  0
  130.2140  120.3170  134.5520 C   0  0  0  0  0  0  0  0  0  0  0  0
  129.4400  119.7980  135.5920 C   0  0  0  0  0  0  0  0  0  0  0  0
  129.1630  118.4240  135.6930 C   0  0  0  0  0  0  0  0  0  0  0  0
  128.3840  117.9160  136.7290 N   0  0  0  0  0  0  0  0  0  0  0  0
  127.9970  118.7700  137.8590 C   0  0  0  0  0  0  0  0  0  0  0  0
  127.7200  117.9060  139.0770 C   0  0  0  0  0  0  0  0  0  0  0  0
  126.6040  116.9270  138.7790 C   0  0  0  0  0  0  0  0  0  0  0  0
  125.4220  117.4410  139.2190 F   0  0  0  0  0  0  0  0  0  0  0  0
  126.8100  115.8010  139.5170 F   0  0  0  0  0  0  0  0  0  0  0  0
  126.4470  116.5470  137.3230 C   0  0  0  0  0  0  0  0  0  0  0  0
  127.7970  116.5750  136.6290 C   0  0  0  0  0  0  0  0  0  0  0  0
  129.6990  117.5960  134.6870 C   0  0  0  0  0  0  0  0  0  0  0  0
  131.3370  116.0360  130.5490 C   0  0  0  0  0  0  0  0  0  0  0  0
  132.3680  116.7230  129.8770 C   0  0  0  0  0  0  0  0  0  0  0  0
  133.2600  116.0510  129.0410 C   0  0  0  0  0  0  0  0  0  0  0  0
  133.1340  114.6810  128.8580 C   0  0  0  0  0  0  0  0  0  0  0  0
  134.0090  113.9670  127.9910 N   0  0  0  0  0  0  0  0  0  0  0  0
  135.1520  112.9110  128.6380 S   0  0  0  0  0  6  0  0  0  0  0  0
  136.0410  112.5900  127.5410 O   0  0  0  0  0  0  0  0  0  0  0  0
  134.4860  111.8690  129.3880 O   0  0  0  0  0  0  0  0  0  0  0  0
  136.0480  113.9550  129.7710 C   0  0  0  0  0  0  0  0  0  0  0  0
  136.6980  113.1150  130.8480 C   0  0  0  0  0  0  0  0  0  0  0  0
  137.3550  112.0090  130.2350 O   0  0  0  0  0  0  0  0  0  0  0  0
  132.1210  113.9800  129.5190 C   0  0  0  0  0  0  0  0  0  0  0  0
  131.2060  114.6340  130.3730 C   0  0  0  0  0  0  0  0  0  0  0  0
  130.1510  113.9050  130.9830 N   0  0  0  0  0  0  0  0  0  0  0  0
  128.8410  113.9360  130.2820 C   0  0  0  0  0  0  0  0  0  0  0  0
  127.7540  114.6480  131.0920 C   0  0  0  0  0  0  0  0  0  0  0  0
  127.5960  114.0270  132.4680 C   0  0  0  0  0  0  0  0  0  0  0  0
  128.8840  113.4920  133.0710 C   0  0  0  0  0  0  0  0  0  0  0  0
  130.1070  114.1710  132.4460 C   0  0  0  0  0  0  0  0  0  0  0  0
  126.3140  113.2840  132.7870 C   0  0  0  0  0  0  0  0  0  0  0  0
  126.5590  114.6320  133.3940 C   0  0  0  0  0  0  0  0  0  0  0  0
  131.9800  116.9610  132.7660 H   0  0  0  0  0  0  0  0  0  0  0  0
  131.3416  119.8795  132.7603 H   0  0  0  0  0  0  0  0  0  0  0  0
  130.4151  121.3974  134.5029 H   0  0  0  0  0  0  0  0  0  0  0  0
  129.0364  120.4828  136.3523 H   0  0  0  0  0  0  0  0  0  0  0  0
  128.8140  119.4709  138.0852 H   0  0  0  0  0  0  0  0  0  0  0  0
  127.0902  119.3349  137.5971 H   0  0  0  0  0  0  0  0  0  0  0  0
  128.6308  117.3493  139.3426 H   0  0  0  0  0  0  0  0  0  0  0  0
  127.4177  118.5517  139.9146 H   0  0  0  0  0  0  0  0  0  0  0  0
  126.0236  115.5340  137.2548 H   0  0  0  0  0  0  0  0  0  0  0  0
  125.7749  117.2669  136.8331 H   0  0  0  0  0  0  0  0  0  0  0  0
  128.4681  115.8468  137.1079 H   0  0  0  0  0  0  0  0  0  0  0  0
  127.6634  116.3171  135.5680 H   0  0  0  0  0  0  0  0  0  0  0  0
  129.4994  116.5151  134.7285 H   0  0  0  0  0  0  0  0  0  0  0  0
  132.4712  117.8095  130.0143 H   0  0  0  0  0  0  0  0  0  0  0  0
  134.0604  116.6050  128.5287 H   0  0  0  0  0  0  0  0  0  0  0  0
  134.3560  114.4530  127.1640 H   0  0  0  0  0  0  0  0  0  0  0  0
  136.8249  114.5063  129.2210 H   0  0  0  0  0  0  0  0  0  0  0  0
  135.3479  114.6625  130.2394 H   0  0  0  0  0  0  0  0  0  0  0  0
  137.4320  113.7224  131.3978 H   0  0  0  0  0  0  0  0  0  0  0  0
  135.9335  112.7524  131.5509 H   0  0  0  0  0  0  0  0  0  0  0  0
  138.0620  111.7250  130.8430 H   0  0  0  0  0  0  0  0  0  0  0  0
  132.0347  112.8935  129.3704 H   0  0  0  0  0  0  0  0  0  0  0  0
  128.9669  114.4615  129.3239 H   0  0  0  0  0  0  0  0  0  0  0  0
  128.5179  112.8948  130.1355 H   0  0  0  0  0  0  0  0  0  0  0  0
  128.0280  115.7072  131.2062 H   0  0  0  0  0  0  0  0  0  0  0  0
  126.7994  114.5489  130.5545 H   0  0  0  0  0  0  0  0  0  0  0  0
  128.8807  113.6835  134.1542 H   0  0  0  0  0  0  0  0  0  0  0  0
  128.9424  112.4120  132.8705 H   0  0  0  0  0  0  0  0  0  0  0  0
  130.0467  115.2561  132.6163 H   0  0  0  0  0  0  0  0  0  0  0  0
  131.0183  113.7677  132.9116 H   0  0  0  0  0  0  0  0  0  0  0  0
  125.5425  113.1628  132.0123 H   0  0  0  0  0  0  0  0  0  0  0  0
  126.0740  112.2867  133.1842 H   0  0  0  0  0  0  0  0  0  0  0  0
  125.9671  115.4985  133.0640 H   0  0  0  0  0  0  0  0  0  0  0  0
  126.5727  115.0301  134.4193 H   0  0  0  0  0  0  0  0  0  0  0  0
  1  2  2  0
  2  3  1  0
  3  4  1  0
  4  5  2  0
  5  6  1  0
  6  7  2  0
  7  8  1  0
  8  9  1  0
  9 10  1  0
 10 11  1  0
 11 12  1  0
 12 13  1  0
 12 14  1  0
 12 15  1  0
 15 16  1  0
  8 17  2  0
  2 18  1  0
 18 19  2  0
 19 20  1  0
 20 21  2  0
 21 22  1  0
 22 23  1  0
 23 24  2  0
 23 25  2  0
 23 26  1  0
 26 27  1  0
 27 28  1  0
 21 29  1  0
 29 30  2  0
 30 31  1  0
 31 32  1  0
 32 33  1  0
 33 34  1  0
 34 35  1  0
 35 36  1  0
 34 37  1  0
 37 38  1  0
 17  4  1  0
 30 18  1  0
 36 31  1  0
 16  9  1  0
 38 34  1  0
  3 39  1  0
  5 40  1  0
  6 41  1  0
  7 42  1  0
 10 43  1  0
 10 44  1  0
 11 45  1  0
 11 46  1  0
 15 47  1  0
 15 48  1  0
 16 49  1  0
 16 50  1  0
 17 51  1  0
 19 52  1  0
 20 53  1  0
 22 54  1  0
 26 55  1  0
 26 56  1  0
 27 57  1  0
 27 58  1  0
 28 59  1  0
 29 60  1  0
 32 61  1  0
 32 62  1  0
 33 63  1  0
 33 64  1  0
 35 65  1  0
 35 66  1  0
 36 67  1  0
 36 68  1  0
 37 69  1  0
 37 70  1  0
 38 71  1  0
 38 72  1  0
M  END
$$$$

     RDKit          3D

 72 76  0  0  0  0  0  0  0  0999 V2000
  130.6630  120.0500  132.3270 O   0  0  0  0  0  0  0  0  0  0  0  0
  130.4790  118.9020  132.7210 C   0  0  0  0  0  0  0  0  0  0  0  0
  130.9680  117.7580  132.1290 N   0  0  0  0  0  0  0  0  0  0  0  0
  131.7720  117.6290  130.9810 C   0  0  0  0  0  0  0  0  0  0  0  0
  131.8360  118.7330  130.1280 C   0  0  0  0  0  0  0  0  0  0  0  0
  132.6110  118.6800  128.9740 C   0  0  0  0  0  0  0  0  0  0  0  0
  133.3250  117.5200  128.6650 C   0  0  0  0  0  0  0  0  0  0  0  0
  133.2860  116.3850  129.4910 C   0  0  0  0  0  0  0  0  0  0  0  0
  134.0070  115.2360  129.1790 N   0  0  0  0  0  0  0  0  0  0  0  0
  135.2730  114.9390  129.8620 C   0  0  0  0  0  0  0  0  0  0  0  0
  136.1310  114.0500  128.9790 C   0  0  0  0  0  0  0  0  0  0  0  0
  135.4050  112.7550  128.6800 C   0  0  0  0  0  0  0  0  0  0  0  0
  135.8060  111.7980  129.5610 F   0  0  0  0  0  0  0  0  0  0  0  0
  135.7990  112.3140  127.4540 F   0  0  0  0  0  0  0  0  0  0  0  0
  133.8940  112.8370  128.7180 C   0  0  0  0  0  0  0  0  0  0  0  0
  133.4350  114.2180  128.2880 C   0  0  0  0  0  0  0  0  0  0  0  0
  132.4940  116.4760  130.6530 C   0  0  0  0  0  0  0  0  0  0  0  0
  129.6290  118.6880  133.9490 C   0  0  0  0  0  0  0  0  0  0  0  0
  129.6360  119.7310  134.8950 C   0  0  0  0  0  0  0  0  0  0  0  0
  128.8730  119.6560  136.0610 C   0  0  0  0  0  0  0  0  0  0  0  0
  128.0940  118.5330  136.3030 C   0  0  0  0  0  0  0  0  0  0  0  0
  127.3250  118.4100  137.4950 N   0  0  0  0  0  0  0  0  0  0  0  0
  127.4010  116.9900  138.3990 S   0  0  0  0  0  6  0  0  0  0  0  0
  126.2200  116.2380  138.0310 O   0  0  0  0  0  0  0  0  0  0  0  0
  127.6840  117.3060  139.7810 O   0  0  0  0  0  0  0  0  0  0  0  0
  128.8120  116.1580  137.6960 C   0  0  0  0  0  0  0  0  0  0  0  0
  130.0710  116.5570  138.4350 C   0  0  0  0  0  0  0  0  0  0  0  0
  130.0250  117.9560  138.7000 O   0  0  0  0  0  0  0  0  0  0  0  0
  128.0700  117.4890  135.3750 C   0  0  0  0  0  0  0  0  0  0  0  0
  128.8290  117.5400  134.1860 C   0  0  0  0  0  0  0  0  0  0  0  0
  128.8310  116.4370  133.2910 N   0  0  0  0  0  0  0  0  0  0  0  0
  127.7860  116.4480  132.2350 C   0  0  0  0  0  0  0  0  0  0  0  0
  126.7790  115.3040  132.3880 C   0  0  0  0  0  0  0  0  0  0  0  0
  127.4750  113.9560  132.4200 C   0  0  0  0  0  0  0  0  0  0  0  0
  128.8450  113.9690  133.0790 C   0  0  0  0  0  0  0  0  0  0  0  0
  128.9830  115.1580  134.0350 C   0  0  0  0  0  0  0  0  0  0  0  0
  127.2670  113.0020  131.2610 C   0  0  0  0  0  0  0  0  0  0  0  0
  126.6070  112.7230  132.5770 C   0  0  0  0  0  0  0  0  0  0  0  0
  130.7330  116.8980  132.6230 H   0  0  0  0  0  0  0  0  0  0  0  0
  131.2724  119.6463  130.3692 H   0  0  0  0  0  0  0  0  0  0  0  0
  132.6615  119.5516  128.3049 H   0  0  0  0  0  0  0  0  0  0  0  0
  133.9345  117.4948  127.7496 H   0  0  0  0  0  0  0  0  0  0  0  0
  135.8080  115.8782  130.0662 H   0  0  0  0  0  0  0  0  0  0  0  0
  135.0644  114.4209  130.8097 H   0  0  0  0  0  0  0  0  0  0  0  0
  136.3452  114.5730  128.0353 H   0  0  0  0  0  0  0  0  0  0  0  0
  137.0709  113.8224  129.5032 H   0  0  0  0  0  0  0  0  0  0  0  0
  133.4717  112.0846  128.0357 H   0  0  0  0  0  0  0  0  0  0  0  0
  133.5492  112.6469  129.7451 H   0  0  0  0  0  0  0  0  0  0  0  0
  133.7673  114.4079  127.2567 H   0  0  0  0  0  0  0  0  0  0  0  0
  132.3373  114.2670  128.3405 H   0  0  0  0  0  0  0  0  0  0  0  0
  132.4414  115.6085  131.3273 H   0  0  0  0  0  0  0  0  0  0  0  0
  130.2547  120.6218  134.7114 H   0  0  0  0  0  0  0  0  0  0  0  0
  128.8889  120.4836  136.7855 H   0  0  0  0  0  0  0  0  0  0  0  0
  126.3910  118.8220  137.5010 H   0  0  0  0  0  0  0  0  0  0  0  0
  128.6712  115.0701  137.7778 H   0  0  0  0  0  0  0  0  0  0  0  0
  128.9089  116.4438  136.6382 H   0  0  0  0  0  0  0  0  0  0  0  0
  130.1341  116.0031  139.3833 H   0  0  0  0  0  0  0  0  0  0  0  0
  130.9539  116.3219  137.8224 H   0  0  0  0  0  0  0  0  0  0  0  0
  129.2940  118.1030  139.3280 H   0  0  0  0  0  0  0  0  0  0  0  0
  127.4449  116.6064  135.5756 H   0  0  0  0  0  0  0  0  0  0  0  0
  127.2436  117.4036  132.2866 H   0  0  0  0  0  0  0  0  0  0  0  0
  128.2911  116.3188  131.2664 H   0  0  0  0  0  0  0  0  0  0  0  0
  126.2209  115.4412  133.3259 H   0  0  0  0  0  0  0  0  0  0  0  0
  126.0990  115.3227  131.5236 H   0  0  0  0  0  0  0  0  0  0  0  0
  128.9812  113.0352  133.6443 H   0  0  0  0  0  0  0  0  0  0  0  0
  129.6105  114.0595  132.2943 H   0  0  0  0  0  0  0  0  0  0  0  0
  128.2044  115.0936  134.8094 H   0  0  0  0  0  0  0  0  0  0  0  0
  129.9794  115.1301  134.5002 H   0  0  0  0  0  0  0  0  0  0  0  0
  126.6602  113.3116  130.3973 H   0  0  0  0  0  0  0  0  0  0  0  0
  127.9332  112.4371  130.5924 H   0  0  0  0  0  0  0  0  0  0  0  0
  125.5167  112.8283  132.6776 H   0  0  0  0  0  0  0  0  0  0  0  0
  126.5900  111.8695  133.2708 H   0  0  0  0  0  0  0  0  0  0  0  0
  1  2  2  0
  2  3  1  0
  3  4  1  0
  4  5  2  0
  5  6  1  0
  6  7  2  0
  7  8  1  0
  8  9  1  0
  9 10  1  0
 10 11  1  0
 11 12  1  0
 12 13  1  0
 12 14  1  0
 12 15  1  0
 15 16  1  0
  8 17  2  0
  2 18  1  0
 18 19  2  0
 19 20  1  0
 20 21  2  0
 21 22  1  0
 22 23  1  0
 23 24  2  0
 23 25  2  0
 23 26  1  0
 26 27  1  0
 27 28  1  0
 21 29  1  0
 29 30  2  0
 30 31  1  0
 31 32  1  0
 32 33  1  0
 33 34  1  0
 34 35  1  0
 35 36  1  0
 34 37  1  0
 37 38  1  0
 17  4  1  0
 30 18  1  0
 36 31  1  0
 16  9  1  0
 38 34  1  0
  3 39  1  0
  5 40  1  0
  6 41  1  0
  7 42  1  0
 10 43  1  0
 10 44  1  0
 11 45  1  0
 11 46  1  0
 15 47  1  0
 15 48  1  0
 16 49  1  0
 16 50  1  0
 17 51  1  0
 19 52  1  0
 20 53  1  0
 22 54  1  0
 26 55  1  0
 26 56  1  0
 27 57  1  0
 27 58  1  0
 28 59  1  0
 29 60  1  0
 32 61  1  0
 32 62  1  0
 33 63  1  0
 33 64  1  0
 35 65  1  0
 35 66  1  0
 36 67  1  0
 36 68  1  0
 37 69  1  0
 37 70  1  0
 38 71  1  0
 38 72  1  0
M  END
$$$$

     RDKit          3D

 72 76  0  0  0  0  0  0  0  0999 V2000
  130.5850  120.0580  132.1310 O   0  0  0  0  0  0  0  0  0  0  0  0
  130.5380  118.9550  132.6670 C   0  0  0  0  0  0  0  0  0  0  0  0
  131.1110  117.7990  132.1850 N   0  0  0  0  0  0  0  0  0  0  0  0
  131.8670  117.6070  131.0130 C   0  0  0  0  0  0  0  0  0  0  0  0
  131.9160  118.6720  130.1120 C   0  0  0  0  0  0  0  0  0  0  0  0
  132.6440  118.5560  128.9320 C   0  0  0  0  0  0  0  0  0  0  0  0
  133.3270  117.3710  128.6460 C   0  0  0  0  0  0  0  0  0  0  0  0
  133.3020  116.2730  129.5220 C   0  0  0  0  0  0  0  0  0  0  0  0
  133.9910  115.0990  129.2310 N   0  0  0  0  0  0  0  0  0  0  0  0
  133.5450  114.2210  128.1420 C   0  0  0  0  0  0  0  0  0  0  0  0
  134.0220  112.8030  128.4060 C   0  0  0  0  0  0  0  0  0  0  0  0
  135.5330  112.7690  128.4930 C   0  0  0  0  0  0  0  0  0  0  0  0
  136.0480  112.4220  127.2820 F   0  0  0  0  0  0  0  0  0  0  0  0
  135.8920  111.7680  129.3440 F   0  0  0  0  0  0  0  0  0  0  0  0
  136.1850  114.0600  128.9390 C   0  0  0  0  0  0  0  0  0  0  0  0
  135.2690  114.8050  129.8920 C   0  0  0  0  0  0  0  0  0  0  0  0
  132.5580  116.4280  130.7080 C   0  0  0  0  0  0  0  0  0  0  0  0
  129.7750  118.8140  133.9600 C   0  0  0  0  0  0  0  0  0  0  0  0
  129.8370  119.9140  134.8380 C   0  0  0  0  0  0  0  0  0  0  0  0
  129.1560  119.9070  136.0560 C   0  0  0  0  0  0  0  0  0  0  0  0
  128.4040  118.7980  136.4190 C   0  0  0  0  0  0  0  0  0  0  0  0
  127.7180  118.7460  137.6660 N   0  0  0  0  0  0  0  0  0  0  0  0
  128.4710  118.0590  139.0080 S   0  0  0  0  0  6  0  0  0  0  0  0
  127.5770  118.3100  140.1190 O   0  0  0  0  0  0  0  0  0  0  0  0
  129.8560  118.4720  139.0560 O   0  0  0  0  0  0  0  0  0  0  0  0
  128.4020  116.3160  138.6420 C   0  0  0  0  0  0  0  0  0  0  0  0
  127.0090  115.9360  138.1900 C   0  0  0  0  0  0  0  0  0  0  0  0
  126.0730  116.8360  138.7760 O   0  0  0  0  0  0  0  0  0  0  0  0
  128.3260  117.6990  135.5600 C   0  0  0  0  0  0  0  0  0  0  0  0
  129.0020  117.6790  134.3210 C   0  0  0  0  0  0  0  0  0  0  0  0
  128.9520  116.5240  133.4970 N   0  0  0  0  0  0  0  0  0  0  0  0
  128.0000  116.5710  132.3570 C   0  0  0  0  0  0  0  0  0  0  0  0
  126.8640  115.5530  132.4930 C   0  0  0  0  0  0  0  0  0  0  0  0
  127.4040  114.1440  132.6640 C   0  0  0  0  0  0  0  0  0  0  0  0
  128.7110  114.0590  133.4360 C   0  0  0  0  0  0  0  0  0  0  0  0
  128.9040  115.2900  134.3270 C   0  0  0  0  0  0  0  0  0  0  0  0
  127.1830  113.1400  131.5520 C   0  0  0  0  0  0  0  0  0  0  0  0
  126.3950  113.0230  132.8210 C   0  0  0  0  0  0  0  0  0  0  0  0
  130.9900  116.9880  132.7900 H   0  0  0  0  0  0  0  0  0  0  0  0
  131.3779  119.6050  130.3354 H   0  0  0  0  0  0  0  0  0  0  0  0
  132.6819  119.3972  128.2242 H   0  0  0  0  0  0  0  0  0  0  0  0
  133.8996  117.2959  127.7098 H   0  0  0  0  0  0  0  0  0  0  0  0
  132.4464  114.2339  128.0873 H   0  0  0  0  0  0  0  0  0  0  0  0
  133.9642  114.5771  127.1894 H   0  0  0  0  0  0  0  0  0  0  0  0
  133.5950  112.4465  129.3550 H   0  0  0  0  0  0  0  0  0  0  0  0
  133.6947  112.1539  127.5804 H   0  0  0  0  0  0  0  0  0  0  0  0
  137.1325  113.8317  129.4490 H   0  0  0  0  0  0  0  0  0  0  0  0
  136.3764  114.6897  128.0576 H   0  0  0  0  0  0  0  0  0  0  0  0
  135.0852  114.1841  130.7812 H   0  0  0  0  0  0  0  0  0  0  0  0
  135.7479  115.7494  130.1899 H   0  0  0  0  0  0  0  0  0  0  0  0
  132.5184  115.5915  131.4212 H   0  0  0  0  0  0  0  0  0  0  0  0
  130.4334  120.7949  134.5582 H   0  0  0  0  0  0  0  0  0  0  0  0
  129.2149  120.7773  136.7262 H   0  0  0  0  0  0  0  0  0  0  0  0
  126.7160  118.5590  137.6470 H   0  0  0  0  0  0  0  0  0  0  0  0
  129.1205  116.0832  137.8423 H   0  0  0  0  0  0  0  0  0  0  0  0
  128.6549  115.7468  139.5487 H   0  0  0  0  0  0  0  0  0  0  0  0
  126.9461  115.9997  137.0937 H   0  0  0  0  0  0  0  0  0  0  0  0
  126.7830  114.9062  138.5037 H   0  0  0  0  0  0  0  0  0  0  0  0
  125.5980  116.3420  139.4690 H   0  0  0  0  0  0  0  0  0  0  0  0
  127.7231  116.8280  135.8564 H   0  0  0  0  0  0  0  0  0  0  0  0
  127.5642  117.5796  132.3039 H   0  0  0  0  0  0  0  0  0  0  0  0
  128.5618  116.3219  131.4447 H   0  0  0  0  0  0  0  0  0  0  0  0
  126.2538  115.8120  133.3708 H   0  0  0  0  0  0  0  0  0  0  0  0
  126.2581  115.5839  131.5754 H   0  0  0  0  0  0  0  0  0  0  0  0
  128.6985  113.1574  134.0661 H   0  0  0  0  0  0  0  0  0  0  0  0
  129.5410  114.0145  132.7155 H   0  0  0  0  0  0  0  0  0  0  0  0
  128.0651  115.3610  135.0350 H   0  0  0  0  0  0  0  0  0  0  0  0
  129.8520  115.1901  134.8759 H   0  0  0  0  0  0  0  0  0  0  0  0
  126.6836  113.4514  130.6227 H   0  0  0  0  0  0  0  0  0  0  0  0
  127.8331  112.4633  130.9780 H   0  0  0  0  0  0  0  0  0  0  0  0
  125.3185  113.2492  132.8218 H   0  0  0  0  0  0  0  0  0  0  0  0
  126.2293  112.2261  133.5609 H   0  0  0  0  0  0  0  0  0  0  0  0
  1  2  2  0
  2  3  1  0
  3  4  1  0
  4  5  2  0
  5  6  1  0
  6  7  2  0
  7  8  1  0
  8  9  1  0
  9 10  1  0
 10 11  1  0
 11 12  1  0
 12 13  1  0
 12 14  1  0
 12 15  1  0
 15 16  1  0
  8 17  2  0
  2 18  1  0
 18 19  2  0
 19 20  1  0
 20 21  2  0
 21 22  1  0
 22 23  1  0
 23 24  2  0
 23 25  2  0
 23 26  1  0
 26 27  1  0
 27 28  1  0
 21 29  1  0
 29 30  2  0
 30 31  1  0
 31 32  1  0
 32 33  1  0
 33 34  1  0
 34 35  1  0
 35 36  1  0
 34 37  1  0
 37 38  1  0
 17  4  1  0
 30 18  1  0
 36 31  1  0
 16  9  1  0
 38 34  1  0
  3 39  1  0
  5 40  1  0
  6 41  1  0
  7 42  1  0
 10 43  1  0
 10 44  1  0
 11 45  1  0
 11 46  1  0
 15 47  1  0
 15 48  1  0
 16 49  1  0
 16 50  1  0
 17 51  1  0
 19 52  1  0
 20 53  1  0
 22 54  1  0
 26 55  1  0
 26 56  1  0
 27 57  1  0
 27 58  1  0
 28 59  1  0
 29 60  1  0
 32 61  1  0
 32 62  1  0
 33 63  1  0
 33 64  1  0
 35 65  1  0
 35 66  1  0
 36 67  1  0
 36 68  1  0
 37 69  1  0
 37 70  1  0
 38 71  1  0
 38 72  1  0
M  END
$$$$

