
     RDKit          3D

 66 69  0  0  0  0  0  0  0  0999 V2000
  133.5440  119.7170  129.5140 C   0  0  0  0  0  0  0  0  0  0  0  0
  132.8490  119.9850  130.8170 C   0  0  0  0  0  0  0  0  0  0  0  0
  132.8000  121.2860  131.3390 C   0  0  0  0  0  0  0  0  0  0  0  0
  132.1340  121.5430  132.5380 C   0  0  0  0  0  0  0  0  0  0  0  0
  131.4910  120.4990  133.2060 C   0  0  0  0  0  0  0  0  0  0  0  0
  130.8120  120.7730  134.4900 C   0  0  0  0  0  0  0  0  0  0  0  0
  131.5080  121.2900  135.3650 O   0  0  0  0  0  0  0  0  0  0  0  0
  129.4580  120.4270  134.6320 N   0  0  0  0  0  0  0  0  0  0  0  0
  128.4160  121.1560  133.9040 C   0  0  0  0  0  0  0  0  0  0  0  0
  129.0230  119.4700  135.6360 C   0  0  0  0  0  0  0  0  0  0  0  0
  128.7880  119.9050  136.9550 C   0  0  0  0  0  0  0  0  0  0  0  0
  128.3430  119.0300  137.9560 C   0  0  0  0  0  0  0  0  0  0  0  0
  128.1100  117.6830  137.6750 C   0  0  0  0  0  0  0  0  0  0  0  0
  127.6000  116.7400  138.7340 C   0  0  0  0  0  0  0  0  0  0  0  0
  128.2710  115.5550  138.7650 F   0  0  0  0  0  0  0  0  0  0  0  0
  126.2880  116.4240  138.5540 F   0  0  0  0  0  0  0  0  0  0  0  0
  127.6910  117.2510  139.9940 F   0  0  0  0  0  0  0  0  0  0  0  0
  128.3140  117.2350  136.3660 C   0  0  0  0  0  0  0  0  0  0  0  0
  128.7600  118.1060  135.3600 C   0  0  0  0  0  0  0  0  0  0  0  0
  128.8000  117.5500  134.0450 N   0  0  0  0  0  0  0  0  0  0  0  0
  128.3800  115.9240  133.8720 S   0  0  0  0  0  6  0  0  0  0  0  0
  127.0480  115.8840  133.3080 O   0  0  0  0  0  0  0  0  0  0  0  0
  128.6890  115.1980  135.0870 O   0  0  0  0  0  0  0  0  0  0  0  0
  129.5010  115.3930  132.5990 C   0  0  0  0  0  0  0  0  0  0  0  0
  130.0060  114.0910  132.6140 C   0  0  0  0  0  0  0  0  0  0  0  0
  130.9000  113.6900  131.6210 C   0  0  0  0  0  0  0  0  0  0  0  0
  131.2890  114.5780  130.6040 C   0  0  0  0  0  0  0  0  0  0  0  0
  132.2640  114.1150  129.5340 C   0  0  0  0  0  0  0  0  0  0  0  0
  131.6420  113.0970  128.5670 C   0  0  0  0  0  0  0  0  0  0  0  0
  132.5850  112.7800  127.4010 C   0  0  0  0  0  0  0  0  0  0  0  0
  134.0670  112.8840  127.7650 C   0  0  0  0  0  0  0  0  0  0  0  0
  134.3130  112.5920  129.2380 C   0  0  0  0  0  0  0  0  0  0  0  0
  133.5700  113.5740  130.1510 C   0  0  0  0  0  0  0  0  0  0  0  0
  130.7510  115.8760  130.5960 C   0  0  0  0  0  0  0  0  0  0  0  0
  129.8590  116.2860  131.5880 C   0  0  0  0  0  0  0  0  0  0  0  0
  131.5400  119.1940  132.7030 C   0  0  0  0  0  0  0  0  0  0  0  0
  132.2090  118.9440  131.5040 C   0  0  0  0  0  0  0  0  0  0  0  0
  134.5539  119.3276  129.7104 H   0  0  0  0  0  0  0  0  0  0  0  0
  132.9706  118.9755  128.9383 H   0  0  0  0  0  0  0  0  0  0  0  0
  133.6169  120.6515  128.9383 H   0  0  0  0  0  0  0  0  0  0  0  0
  133.2902  122.1097  130.7993 H   0  0  0  0  0  0  0  0  0  0  0  0
  132.1157  122.5611  132.9541 H   0  0  0  0  0  0  0  0  0  0  0  0
  127.7331  121.6338  134.6219 H   0  0  0  0  0  0  0  0  0  0  0  0
  128.8812  121.9267  133.2718 H   0  0  0  0  0  0  0  0  0  0  0  0
  127.8515  120.4548  133.2718 H   0  0  0  0  0  0  0  0  0  0  0  0
  128.9586  120.9621  137.2070 H   0  0  0  0  0  0  0  0  0  0  0  0
  128.1756  119.4096  138.9747 H   0  0  0  0  0  0  0  0  0  0  0  0
  128.1213  116.1803  136.1203 H   0  0  0  0  0  0  0  0  0  0  0  0
  128.3400  118.1300  133.3290 H   0  0  0  0  0  0  0  0  0  0  0  0
  129.7012  113.3873  133.4026 H   0  0  0  0  0  0  0  0  0  0  0  0
  131.3048  112.6673  131.6344 H   0  0  0  0  0  0  0  0  0  0  0  0
  132.5149  115.0052  128.9384 H   0  0  0  0  0  0  0  0  0  0  0  0
  131.4273  112.1681  129.1156 H   0  0  0  0  0  0  0  0  0  0  0  0
  130.7190  113.5315  128.1557 H   0  0  0  0  0  0  0  0  0  0  0  0
  132.3823  111.7544  127.0590 H   0  0  0  0  0  0  0  0  0  0  0  0
  132.3923  113.5284  126.6182 H   0  0  0  0  0  0  0  0  0  0  0  0
  134.6331  112.1605  127.1600 H   0  0  0  0  0  0  0  0  0  0  0  0
  134.3955  113.9142  127.5629 H   0  0  0  0  0  0  0  0  0  0  0  0
  133.9686  111.5711  129.4598 H   0  0  0  0  0  0  0  0  0  0  0  0
  135.3908  112.6994  129.4299 H   0  0  0  0  0  0  0  0  0  0  0  0
  133.3242  113.0584  131.0911 H   0  0  0  0  0  0  0  0  0  0  0  0
  134.2350  114.4355  130.3111 H   0  0  0  0  0  0  0  0  0  0  0  0
  131.0363  116.5775  129.7982 H   0  0  0  0  0  0  0  0  0  0  0  0
  129.4419  117.3038  131.5731 H   0  0  0  0  0  0  0  0  0  0  0  0
  131.0548  118.3713  133.2487 H   0  0  0  0  0  0  0  0  0  0  0  0
  132.2343  117.9231  131.0952 H   0  0  0  0  0  0  0  0  0  0  0  0
  1  2  1  0
  2  3  2  0
  3  4  1  0
  4  5  2  0
  5  6  1  0
  6  7  2  0
  6  8  1  0
  8  9  1  0
  8 10  1  0
 10 11  2  0
 11 12  1  0
 12 13  2  0
 13 14  1  0
 14 15  1  0
 14 16  1  0
 14 17  1  0
 13 18  1  0
 18 19  2  0
 19 20  1  0
 20 21  1  0
 21 22  2  0
 21 23  2  0
 21 24  1  0
 24 25  2  0
 25 26  1  0
 26 27  2  0
 27 28  1  0
 28 29  1  0
 29 30  1  0
 30 31  1  0
 31 32  1  0
 32 33  1  0
 27 34  1  0
 34 35  2  0
  5 36  1  0
 36 37  2  0
 37  2  1  0
 19 10  1  0
 35 24  1  0
 33 28  1  0
  1 38  1  0
  1 39  1  0
  1 40  1  0
  3 41  1  0
  4 42  1  0
  9 43  1  0
  9 44  1  0
  9 45  1  0
 11 46  1  0
 12 47  1  0
 18 48  1  0
 20 49  1  0
 25 50  1  0
 26 51  1  0
 28 52  1  0
 29 53  1  0
 29 54  1  0
 30 55  1  0
 30 56  1  0
 31 57  1  0
 31 58  1  0
 32 59  1  0
 32 60  1  0
 33 61  1  0
 33 62  1  0
 34 63  1  0
 35 64  1  0
 36 65  1  0
 37 66  1  0
M  END
$$$$

     RDKit          3D

 66 69  0  0  0  0  0  0  0  0999 V2000
  133.4670  119.7340  129.4970 C   0  0  0  0  0  0  0  0  0  0  0  0
  132.7970  120.0060  130.8130 C   0  0  0  0  0  0  0  0  0  0  0  0
  132.7700  121.3070  131.3370 C   0  0  0  0  0  0  0  0  0  0  0  0
  132.1270  121.5670  132.5490 C   0  0  0  0  0  0  0  0  0  0  0  0
  131.4840  120.5280  133.2250 C   0  0  0  0  0  0  0  0  0  0  0  0
  130.8300  120.8060  134.5210 C   0  0  0  0  0  0  0  0  0  0  0  0
  131.5540  121.2860  135.3950 O   0  0  0  0  0  0  0  0  0  0  0  0
  129.4670  120.5050  134.6740 N   0  0  0  0  0  0  0  0  0  0  0  0
  128.4380  121.3380  134.0450 C   0  0  0  0  0  0  0  0  0  0  0  0
  129.0180  119.4810  135.6020 C   0  0  0  0  0  0  0  0  0  0  0  0
  128.8040  119.8140  136.9540 C   0  0  0  0  0  0  0  0  0  0  0  0
  128.3470  118.8730  137.8870 C   0  0  0  0  0  0  0  0  0  0  0  0
  128.0800  117.5580  137.5020 C   0  0  0  0  0  0  0  0  0  0  0  0
  127.5570  116.5450  138.4880 C   0  0  0  0  0  0  0  0  0  0  0  0
  127.4430  117.0360  139.7520 F   0  0  0  0  0  0  0  0  0  0  0  0
  128.3640  115.4530  138.5800 F   0  0  0  0  0  0  0  0  0  0  0  0
  126.3230  116.0690  138.1610 F   0  0  0  0  0  0  0  0  0  0  0  0
  128.2630  117.2110  136.1600 C   0  0  0  0  0  0  0  0  0  0  0  0
  128.7210  118.1490  135.2220 C   0  0  0  0  0  0  0  0  0  0  0  0
  128.7370  117.6990  133.8660 N   0  0  0  0  0  0  0  0  0  0  0  0
  128.0830  116.1770  133.5410 S   0  0  0  0  0  6  0  0  0  0  0  0
  126.9140  116.3820  132.7130 O   0  0  0  0  0  0  0  0  0  0  0  0
  127.9950  115.4020  134.7620 O   0  0  0  0  0  0  0  0  0  0  0  0
  129.3360  115.4570  132.5060 C   0  0  0  0  0  0  0  0  0  0  0  0
  129.7480  114.1410  132.7240 C   0  0  0  0  0  0  0  0  0  0  0  0
  130.7450  113.5920  131.9180 C   0  0  0  0  0  0  0  0  0  0  0  0
  131.3310  114.3450  130.8860 C   0  0  0  0  0  0  0  0  0  0  0  0
  132.4150  113.7220  130.0230 C   0  0  0  0  0  0  0  0  0  0  0  0
  133.6050  114.6660  129.7930 C   0  0  0  0  0  0  0  0  0  0  0  0
  134.7540  113.9560  129.0690 C   0  0  0  0  0  0  0  0  0  0  0  0
  134.2910  112.8470  128.1220 C   0  0  0  0  0  0  0  0  0  0  0  0
  132.8970  113.1140  127.5720 C   0  0  0  0  0  0  0  0  0  0  0  0
  131.8480  113.2040  128.6850 C   0  0  0  0  0  0  0  0  0  0  0  0
  130.8860  115.6600  130.6720 C   0  0  0  0  0  0  0  0  0  0  0  0
  129.8900  116.2180  131.4760 C   0  0  0  0  0  0  0  0  0  0  0  0
  131.5120  119.2240  132.7190 C   0  0  0  0  0  0  0  0  0  0  0  0
  132.1580  118.9700  131.5080 C   0  0  0  0  0  0  0  0  0  0  0  0
  134.4728  119.3257  129.6751 H   0  0  0  0  0  0  0  0  0  0  0  0
  132.8717  119.0063  128.9259 H   0  0  0  0  0  0  0  0  0  0  0  0
  133.5474  120.6707  128.9259 H   0  0  0  0  0  0  0  0  0  0  0  0
  133.2582  122.1271  130.7900 H   0  0  0  0  0  0  0  0  0  0  0  0
  132.1270  122.5838  132.9686 H   0  0  0  0  0  0  0  0  0  0  0  0
  127.8347  121.8264  134.8244 H   0  0  0  0  0  0  0  0  0  0  0  0
  128.9187  122.1044  133.4193 H   0  0  0  0  0  0  0  0  0  0  0  0
  127.7884  120.7083  133.4193 H   0  0  0  0  0  0  0  0  0  0  0  0
  129.0015  120.8434  137.2875 H   0  0  0  0  0  0  0  0  0  0  0  0
  128.1971  119.1741  138.9343 H   0  0  0  0  0  0  0  0  0  0  0  0
  128.0439  116.1837  135.8334 H   0  0  0  0  0  0  0  0  0  0  0  0
  128.4050  118.3990  133.1870 H   0  0  0  0  0  0  0  0  0  0  0  0
  129.2900  113.5420  133.5249 H   0  0  0  0  0  0  0  0  0  0  0  0
  131.0766  112.5577  132.0920 H   0  0  0  0  0  0  0  0  0  0  0  0
  132.7992  112.8585  130.5858 H   0  0  0  0  0  0  0  0  0  0  0  0
  133.2718  115.5192  129.1839 H   0  0  0  0  0  0  0  0  0  0  0  0
  133.9716  115.0040  130.7735 H   0  0  0  0  0  0  0  0  0  0  0  0
  135.3102  114.7030  128.4837 H   0  0  0  0  0  0  0  0  0  0  0  0
  135.3763  113.4807  129.8415 H   0  0  0  0  0  0  0  0  0  0  0  0
  134.9976  112.7792  127.2817 H   0  0  0  0  0  0  0  0  0  0  0  0
  134.2582  111.9057  128.6903 H   0  0  0  0  0  0  0  0  0  0  0  0
  132.9098  114.0645  127.0184 H   0  0  0  0  0  0  0  0  0  0  0  0
  132.6244  112.2745  126.9155 H   0  0  0  0  0  0  0  0  0  0  0  0
  131.0500  113.8865  128.3573 H   0  0  0  0  0  0  0  0  0  0  0  0
  131.4767  112.1841  128.8636 H   0  0  0  0  0  0  0  0  0  0  0  0
  131.3276  116.2577  129.8610 H   0  0  0  0  0  0  0  0  0  0  0  0
  129.5455  117.2476  131.2991 H   0  0  0  0  0  0  0  0  0  0  0  0
  131.0284  118.4049  133.2714 H   0  0  0  0  0  0  0  0  0  0  0  0
  132.1657  117.9500  131.0963 H   0  0  0  0  0  0  0  0  0  0  0  0
  1  2  1  0
  2  3  2  0
  3  4  1  0
  4  5  2  0
  5  6  1  0
  6  7  2  0
  6  8  1  0
  8  9  1  0
  8 10  1  0
 10 11  2  0
 11 12  1  0
 12 13  2  0
 13 14  1  0
 14 15  1  0
 14 16  1  0
 14 17  1  0
 13 18  1  0
 18 19  2  0
 19 20  1  0
 20 21  1  0
 21 22  2  0
 21 23  2  0
 21 24  1  0
 24 25  2  0
 25 26  1  0
 26 27  2  0
 27 28  1  0
 28 29  1  0
 29 30  1  0
 30 31  1  0
 31 32  1  0
 32 33  1  0
 27 34  1  0
 34 35  2  0
  5 36  1  0
 36 37  2  0
 37  2  1  0
 19 10  1  0
 35 24  1  0
 33 28  1  0
  1 38  1  0
  1 39  1  0
  1 40  1  0
  3 41  1  0
  4 42  1  0
  9 43  1  0
  9 44  1  0
  9 45  1  0
 11 46  1  0
 12 47  1  0
 18 48  1  0
 20 49  1  0
 25 50  1  0
 26 51  1  0
 28 52  1  0
 29 53  1  0
 29 54  1  0
 30 55  1  0
 30 56  1  0
 31 57  1  0
 31 58  1  0
 32 59  1  0
 32 60  1  0
 33 61  1  0
 33 62  1  0
 34 63  1  0
 35 64  1  0
 36 65  1  0
 37 66  1  0
M  END
$$$$

     RDKit          3D

 66 69  0  0  0  0  0  0  0  0999 V2000
  133.5020  119.7720  129.5530 C   0  0  0  0  0  0  0  0  0  0  0  0
  132.8220  120.0600  130.8600 C   0  0  0  0  0  0  0  0  0  0  0  0
  132.8300  121.3570  131.3920 C   0  0  0  0  0  0  0  0  0  0  0  0
  132.1770  121.6330  132.5940 C   0  0  0  0  0  0  0  0  0  0  0  0
  131.4900  120.6130  133.2550 C   0  0  0  0  0  0  0  0  0  0  0  0
  130.8270  120.9060  134.5430 C   0  0  0  0  0  0  0  0  0  0  0  0
  131.5350  121.4270  135.4050 O   0  0  0  0  0  0  0  0  0  0  0  0
  129.4720  120.5730  134.7010 N   0  0  0  0  0  0  0  0  0  0  0  0
  128.4180  121.4170  134.1290 C   0  0  0  0  0  0  0  0  0  0  0  0
  129.0550  119.4980  135.5860 C   0  0  0  0  0  0  0  0  0  0  0  0
  128.7950  119.7750  136.9420 C   0  0  0  0  0  0  0  0  0  0  0  0
  128.3660  118.7810  137.8340 C   0  0  0  0  0  0  0  0  0  0  0  0
  128.1750  117.4680  137.4000 C   0  0  0  0  0  0  0  0  0  0  0  0
  127.6840  116.3970  138.3400 C   0  0  0  0  0  0  0  0  0  0  0  0
  126.6580  115.6640  137.8280 F   0  0  0  0  0  0  0  0  0  0  0  0
  127.2270  116.9130  139.5140 F   0  0  0  0  0  0  0  0  0  0  0  0
  128.6500  115.4980  138.6790 F   0  0  0  0  0  0  0  0  0  0  0  0
  128.4050  117.1750  136.0520 C   0  0  0  0  0  0  0  0  0  0  0  0
  128.8350  118.1660  135.1560 C   0  0  0  0  0  0  0  0  0  0  0  0
  128.9050  117.7620  133.7870 N   0  0  0  0  0  0  0  0  0  0  0  0
  128.1850  116.2940  133.3690 S   0  0  0  0  0  6  0  0  0  0  0  0
  127.0830  116.5940  132.4800 O   0  0  0  0  0  0  0  0  0  0  0  0
  127.9770  115.4860  134.5540 O   0  0  0  0  0  0  0  0  0  0  0  0
  129.4550  115.5340  132.3860 C   0  0  0  0  0  0  0  0  0  0  0  0
  130.1140  116.2750  131.4030 C   0  0  0  0  0  0  0  0  0  0  0  0
  131.0970  115.6630  130.6250 C   0  0  0  0  0  0  0  0  0  0  0  0
  131.4360  114.3150  130.8250 C   0  0  0  0  0  0  0  0  0  0  0  0
  132.5100  113.6730  129.9630 C   0  0  0  0  0  0  0  0  0  0  0  0
  133.7390  114.5760  129.7800 C   0  0  0  0  0  0  0  0  0  0  0  0
  134.8740  113.8410  129.0570 C   0  0  0  0  0  0  0  0  0  0  0  0
  134.3860  112.7770  128.0730 C   0  0  0  0  0  0  0  0  0  0  0  0
  133.0130  113.1120  127.5060 C   0  0  0  0  0  0  0  0  0  0  0  0
  131.9480  113.2130  128.6030 C   0  0  0  0  0  0  0  0  0  0  0  0
  130.7750  113.5940  131.8340 C   0  0  0  0  0  0  0  0  0  0  0  0
  129.7890  114.1980  132.6150 C   0  0  0  0  0  0  0  0  0  0  0  0
  131.4830  119.3110  132.7420 C   0  0  0  0  0  0  0  0  0  0  0  0
  132.1380  119.0420  131.5400 C   0  0  0  0  0  0  0  0  0  0  0  0
  134.4995  119.3495  129.7439 H   0  0  0  0  0  0  0  0  0  0  0  0
  132.9021  119.0507  128.9787 H   0  0  0  0  0  0  0  0  0  0  0  0
  133.6026  120.7048  128.9787 H   0  0  0  0  0  0  0  0  0  0  0  0
  133.3548  122.1630  130.8581 H   0  0  0  0  0  0  0  0  0  0  0  0
  132.2034  122.6477  133.0180 H   0  0  0  0  0  0  0  0  0  0  0  0
  127.8387  121.8809  134.9409 H   0  0  0  0  0  0  0  0  0  0  0  0
  128.8737  122.2027  133.5085 H   0  0  0  0  0  0  0  0  0  0  0  0
  127.7510  120.8005  133.5085 H   0  0  0  0  0  0  0  0  0  0  0  0
  128.9324  120.8015  137.3128 H   0  0  0  0  0  0  0  0  0  0  0  0
  128.1781  119.0389  138.8867 H   0  0  0  0  0  0  0  0  0  0  0  0
  128.2460  116.1494  135.6874 H   0  0  0  0  0  0  0  0  0  0  0  0
  128.6530  118.5030  133.1170 H   0  0  0  0  0  0  0  0  0  0  0  0
  129.8600  117.3333  131.2433 H   0  0  0  0  0  0  0  0  0  0  0  0
  131.6127  116.2432  129.8456 H   0  0  0  0  0  0  0  0  0  0  0  0
  132.8502  112.7797  130.5073 H   0  0  0  0  0  0  0  0  0  0  0  0
  133.4501  115.4573  129.1885 H   0  0  0  0  0  0  0  0  0  0  0  0
  134.0998  114.8736  130.7756 H   0  0  0  0  0  0  0  0  0  0  0  0
  135.4693  114.5810  128.5019 H   0  0  0  0  0  0  0  0  0  0  0  0
  135.4636  113.3218  129.8269 H   0  0  0  0  0  0  0  0  0  0  0  0
  135.1047  112.7040  127.2435 H   0  0  0  0  0  0  0  0  0  0  0  0
  134.3064  111.8233  128.6153 H   0  0  0  0  0  0  0  0  0  0  0  0
  133.0720  114.0755  126.9785 H   0  0  0  0  0  0  0  0  0  0  0  0
  132.7207  112.3014  126.8223 H   0  0  0  0  0  0  0  0  0  0  0  0
  131.1826  113.9342  128.2803 H   0  0  0  0  0  0  0  0  0  0  0  0
  131.5346  112.2039  128.7475 H   0  0  0  0  0  0  0  0  0  0  0  0
  131.0381  112.5406  132.0103 H   0  0  0  0  0  0  0  0  0  0  0  0
  129.2792  113.6263  133.4045 H   0  0  0  0  0  0  0  0  0  0  0  0
  130.9647  118.5054  133.2827 H   0  0  0  0  0  0  0  0  0  0  0  0
  132.1178  118.0244  131.1227 H   0  0  0  0  0  0  0  0  0  0  0  0
  1  2  1  0
  2  3  2  0
  3  4  1  0
  4  5  2  0
  5  6  1  0
  6  7  2  0
  6  8  1  0
  8  9  1  0
  8 10  1  0
 10 11  2  0
 11 12  1  0
 12 13  2  0
 13 14  1  0
 14 15  1  0
 14 16  1  0
 14 17  1  0
 13 18  1  0
 18 19  2  0
 19 20  1  0
 20 21  1  0
 21 22  2  0
 21 23  2  0
 21 24  1  0
 24 25  2  0
 25 26  1  0
 26 27  2  0
 27 28  1  0
 28 29  1  0
 29 30  1  0
 30 31  1  0
 31 32  1  0
 32 33  1  0
 27 34  1  0
 34 35  2  0
  5 36  1  0
 36 37  2  0
 37  2  1  0
 19 10  1  0
 35 24  1  0
 33 28  1  0
  1 38  1  0
  1 39  1  0
  1 40  1  0
  3 41  1  0
  4 42  1  0
  9 43  1  0
  9 44  1  0
  9 45  1  0
 11 46  1  0
 12 47  1  0
 18 48  1  0
 20 49  1  0
 25 50  1  0
 26 51  1  0
 28 52  1  0
 29 53  1  0
 29 54  1  0
 30 55  1  0
 30 56  1  0
 31 57  1  0
 31 58  1  0
 32 59  1  0
 32 60  1  0
 33 61  1  0
 33 62  1  0
 34 63  1  0
 35 64  1  0
 36 65  1  0
 37 66  1  0
M  END
$$$$

     RDKit          3D

 66 69  0  0  0  0  0  0  0  0999 V2000
  133.5580  119.8740  129.5380 C   0  0  0  0  0  0  0  0  0  0  0  0
  132.8380  120.1270  130.8300 C   0  0  0  0  0  0  0  0  0  0  0  0
  132.1570  119.0860  131.4770 C   0  0  0  0  0  0  0  0  0  0  0  0
  131.5060  119.3130  132.6910 C   0  0  0  0  0  0  0  0  0  0  0  0
  131.5600  120.5800  133.2740 C   0  0  0  0  0  0  0  0  0  0  0  0
  130.8430  120.8200  134.5450 C   0  0  0  0  0  0  0  0  0  0  0  0
  131.4970  121.3660  135.4340 O   0  0  0  0  0  0  0  0  0  0  0  0
  129.5040  120.4130  134.6580 N   0  0  0  0  0  0  0  0  0  0  0  0
  128.4480  121.0830  133.8940 C   0  0  0  0  0  0  0  0  0  0  0  0
  129.0880  119.4520  135.6650 C   0  0  0  0  0  0  0  0  0  0  0  0
  128.4080  119.8980  136.8150 C   0  0  0  0  0  0  0  0  0  0  0  0
  127.9610  119.0110  137.8050 C   0  0  0  0  0  0  0  0  0  0  0  0
  128.1750  117.6380  137.6800 C   0  0  0  0  0  0  0  0  0  0  0  0
  127.6720  116.6710  138.7210 C   0  0  0  0  0  0  0  0  0  0  0  0
  126.3840  116.2800  138.5130 F   0  0  0  0  0  0  0  0  0  0  0  0
  127.7050  117.2000  139.9750 F   0  0  0  0  0  0  0  0  0  0  0  0
  128.4030  115.5230  138.7820 F   0  0  0  0  0  0  0  0  0  0  0  0
  128.8280  117.1700  136.5360 C   0  0  0  0  0  0  0  0  0  0  0  0
  129.2770  118.0530  135.5420 C   0  0  0  0  0  0  0  0  0  0  0  0
  129.8080  117.4330  134.3690 N   0  0  0  0  0  0  0  0  0  0  0  0
  128.7410  116.5560  133.3990 S   0  0  0  0  0  6  0  0  0  0  0  0
  128.0180  117.5110  132.5860 O   0  0  0  0  0  0  0  0  0  0  0  0
  128.0280  115.5800  134.1990 O   0  0  0  0  0  0  0  0  0  0  0  0
  129.8580  115.6920  132.3200 C   0  0  0  0  0  0  0  0  0  0  0  0
  130.0660  114.3210  132.4860 C   0  0  0  0  0  0  0  0  0  0  0  0
  130.9590  113.6560  131.6450 C   0  0  0  0  0  0  0  0  0  0  0  0
  131.6430  114.3480  130.6320 C   0  0  0  0  0  0  0  0  0  0  0  0
  132.6100  113.5990  129.7310 C   0  0  0  0  0  0  0  0  0  0  0  0
  134.0070  114.2370  129.7000 C   0  0  0  0  0  0  0  0  0  0  0  0
  135.0050  113.3690  128.9270 C   0  0  0  0  0  0  0  0  0  0  0  0
  134.3660  112.5540  127.8010 C   0  0  0  0  0  0  0  0  0  0  0  0
  133.1260  113.2350  127.2390 C   0  0  0  0  0  0  0  0  0  0  0  0
  132.0440  113.4300  128.3060 C   0  0  0  0  0  0  0  0  0  0  0  0
  131.4020  115.7230  130.4700 C   0  0  0  0  0  0  0  0  0  0  0  0
  130.5120  116.3960  131.3080 C   0  0  0  0  0  0  0  0  0  0  0  0
  132.2260  121.6310  132.6350 C   0  0  0  0  0  0  0  0  0  0  0  0
  132.8730  121.3980  131.4210 C   0  0  0  0  0  0  0  0  0  0  0  0
  134.5764  119.5162  129.7497 H   0  0  0  0  0  0  0  0  0  0  0  0
  133.0150  119.1128  128.9586 H   0  0  0  0  0  0  0  0  0  0  0  0
  133.6105  120.8075  128.9586 H   0  0  0  0  0  0  0  0  0  0  0  0
  132.1355  118.0834  131.0249 H   0  0  0  0  0  0  0  0  0  0  0  0
  130.9545  118.4992  133.1845 H   0  0  0  0  0  0  0  0  0  0  0  0
  127.7273  121.5403  134.5879 H   0  0  0  0  0  0  0  0  0  0  0  0
  128.8932  121.8642  133.2603 H   0  0  0  0  0  0  0  0  0  0  0  0
  127.9309  120.3474  133.2603 H   0  0  0  0  0  0  0  0  0  0  0  0
  128.2219  120.9749  136.9404 H   0  0  0  0  0  0  0  0  0  0  0  0
  127.4362  119.4018  138.6892 H   0  0  0  0  0  0  0  0  0  0  0  0
  128.9930  116.0895  136.4126 H   0  0  0  0  0  0  0  0  0  0  0  0
  130.4040  118.0520  133.8000 H   0  0  0  0  0  0  0  0  0  0  0  0
  129.5303  113.7700  133.2731 H   0  0  0  0  0  0  0  0  0  0  0  0
  131.1293  112.5773  131.7769 H   0  0  0  0  0  0  0  0  0  0  0  0
  132.7278  112.5977  130.1708 H   0  0  0  0  0  0  0  0  0  0  0  0
  133.9393  115.2218  129.2146 H   0  0  0  0  0  0  0  0  0  0  0  0
  134.3646  114.3340  130.7357 H   0  0  0  0  0  0  0  0  0  0  0  0
  135.7707  114.0261  128.4890 H   0  0  0  0  0  0  0  0  0  0  0  0
  135.4296  112.6505  129.6436 H   0  0  0  0  0  0  0  0  0  0  0  0
  135.1005  112.4291  126.9917 H   0  0  0  0  0  0  0  0  0  0  0  0
  134.0620  111.5813  128.2151 H   0  0  0  0  0  0  0  0  0  0  0  0
  133.4119  114.2191  126.8393 H   0  0  0  0  0  0  0  0  0  0  0  0
  132.7124  112.5896  126.4501 H   0  0  0  0  0  0  0  0  0  0  0  0
  131.4632  114.3292  128.0529 H   0  0  0  0  0  0  0  0  0  0  0  0
  131.4245  112.5211  128.3091 H   0  0  0  0  0  0  0  0  0  0  0  0
  131.9212  116.2754  129.6730 H   0  0  0  0  0  0  0  0  0  0  0  0
  130.3276  117.4719  131.1721 H   0  0  0  0  0  0  0  0  0  0  0  0
  132.2396  122.6340  133.0863 H   0  0  0  0  0  0  0  0  0  0  0  0
  133.4141  122.2168  130.9243 H   0  0  0  0  0  0  0  0  0  0  0  0
  1  2  1  0
  2  3  2  0
  3  4  1  0
  4  5  2  0
  5  6  1  0
  6  7  2  0
  6  8  1  0
  8  9  1  0
  8 10  1  0
 10 11  2  0
 11 12  1  0
 12 13  2  0
 13 14  1  0
 14 15  1  0
 14 16  1  0
 14 17  1  0
 13 18  1  0
 18 19  2  0
 19 20  1  0
 20 21  1  0
 21 22  2  0
 21 23  2  0
 21 24  1  0
 24 25  2  0
 25 26  1  0
 26 27  2  0
 27 28  1  0
 28 29  1  0
 29 30  1  0
 30 31  1  0
 31 32  1  0
 32 33  1  0
 27 34  1  0
 34 35  2  0
  5 36  1  0
 36 37  2  0
 37  2  1  0
 19 10  1  0
 35 24  1  0
 33 28  1  0
  1 38  1  0
  1 39  1  0
  1 40  1  0
  3 41  1  0
  4 42  1  0
  9 43  1  0
  9 44  1  0
  9 45  1  0
 11 46  1  0
 12 47  1  0
 18 48  1  0
 20 49  1  0
 25 50  1  0
 26 51  1  0
 28 52  1  0
 29 53  1  0
 29 54  1  0
 30 55  1  0
 30 56  1  0
 31 57  1  0
 31 58  1  0
 32 59  1  0
 32 60  1  0
 33 61  1  0
 33 62  1  0
 34 63  1  0
 35 64  1  0
 36 65  1  0
 37 66  1  0
M  END
$$$$

     RDKit          3D

 66 69  0  0  0  0  0  0  0  0999 V2000
  133.1840  119.5090  129.4320 C   0  0  0  0  0  0  0  0  0  0  0  0
  132.5320  119.7830  130.7550 C   0  0  0  0  0  0  0  0  0  0  0  0
  131.9260  118.7420  131.4750 C   0  0  0  0  0  0  0  0  0  0  0  0
  131.3400  118.9890  132.7170 C   0  0  0  0  0  0  0  0  0  0  0  0
  131.3830  120.2770  133.2550 C   0  0  0  0  0  0  0  0  0  0  0  0
  130.7340  120.5360  134.5580 C   0  0  0  0  0  0  0  0  0  0  0  0
  131.4730  120.9510  135.4520 O   0  0  0  0  0  0  0  0  0  0  0  0
  129.3580  120.2900  134.6930 N   0  0  0  0  0  0  0  0  0  0  0  0
  128.3710  121.1840  134.0800 C   0  0  0  0  0  0  0  0  0  0  0  0
  128.8570  119.2640  135.5920 C   0  0  0  0  0  0  0  0  0  0  0  0
  128.7500  119.5380  136.9700 C   0  0  0  0  0  0  0  0  0  0  0  0
  128.2490  118.5930  137.8780 C   0  0  0  0  0  0  0  0  0  0  0  0
  127.8320  117.3360  137.4400 C   0  0  0  0  0  0  0  0  0  0  0  0
  127.2620  116.3230  138.4010 C   0  0  0  0  0  0  0  0  0  0  0  0
  126.1100  115.7500  137.9550 F   0  0  0  0  0  0  0  0  0  0  0  0
  126.9660  116.8710  139.6110 F   0  0  0  0  0  0  0  0  0  0  0  0
  128.1140  115.2920  138.6570 F   0  0  0  0  0  0  0  0  0  0  0  0
  127.9080  117.0500  136.0730 C   0  0  0  0  0  0  0  0  0  0  0  0
  128.4080  117.9910  135.1610 C   0  0  0  0  0  0  0  0  0  0  0  0
  128.3080  117.6210  133.7850 N   0  0  0  0  0  0  0  0  0  0  0  0
  127.8270  116.0410  133.4350 S   0  0  0  0  0  6  0  0  0  0  0  0
  126.6380  116.1270  132.6140 O   0  0  0  0  0  0  0  0  0  0  0  0
  127.8320  115.2400  134.6430 O   0  0  0  0  0  0  0  0  0  0  0  0
  129.1470  115.4830  132.3850 C   0  0  0  0  0  0  0  0  0  0  0  0
  129.8690  114.3360  132.7220 C   0  0  0  0  0  0  0  0  0  0  0  0
  130.9160  113.9180  131.9000 C   0  0  0  0  0  0  0  0  0  0  0  0
  131.2450  114.6320  130.7360 C   0  0  0  0  0  0  0  0  0  0  0  0
  132.3900  114.1540  129.8580 C   0  0  0  0  0  0  0  0  0  0  0  0
  133.0210  112.8500  130.3670 C   0  0  0  0  0  0  0  0  0  0  0  0
  134.0510  112.2990  129.3740 C   0  0  0  0  0  0  0  0  0  0  0  0
  134.7610  113.3840  128.5620 C   0  0  0  0  0  0  0  0  0  0  0  0
  134.8430  114.7010  129.3210 C   0  0  0  0  0  0  0  0  0  0  0  0
  133.4560  115.2530  129.6670 C   0  0  0  0  0  0  0  0  0  0  0  0
  130.4910  115.7710  130.4050 C   0  0  0  0  0  0  0  0  0  0  0  0
  129.4440  116.1980  131.2230 C   0  0  0  0  0  0  0  0  0  0  0  0
  131.9740  121.3260  132.5450 C   0  0  0  0  0  0  0  0  0  0  0  0
  132.5570  121.0730  131.3030 C   0  0  0  0  0  0  0  0  0  0  0  0
  134.1865  119.0877  129.5976 H   0  0  0  0  0  0  0  0  0  0  0  0
  132.5738  118.7912  128.8642 H   0  0  0  0  0  0  0  0  0  0  0  0
  133.2697  120.4472  128.8642 H   0  0  0  0  0  0  0  0  0  0  0  0
  131.9129  117.7244  131.0574 H   0  0  0  0  0  0  0  0  0  0  0  0
  130.8475  118.1747  133.2686 H   0  0  0  0  0  0  0  0  0  0  0  0
  127.8027  121.6987  134.8688 H   0  0  0  0  0  0  0  0  0  0  0  0
  128.8878  121.9277  133.4556 H   0  0  0  0  0  0  0  0  0  0  0  0
  127.6819  120.5964  133.4556 H   0  0  0  0  0  0  0  0  0  0  0  0
  129.0687  120.5218  137.3449 H   0  0  0  0  0  0  0  0  0  0  0  0
  128.1843  118.8460  138.9466 H   0  0  0  0  0  0  0  0  0  0  0  0
  127.5696  116.0696  135.7066 H   0  0  0  0  0  0  0  0  0  0  0  0
  127.7990  118.3010  133.2020 H   0  0  0  0  0  0  0  0  0  0  0  0
  129.6143  113.7668  133.6281 H   0  0  0  0  0  0  0  0  0  0  0  0
  131.4906  113.0187  132.1666 H   0  0  0  0  0  0  0  0  0  0  0  0
  131.9530  113.9314  128.8734 H   0  0  0  0  0  0  0  0  0  0  0  0
  133.5198  113.0455  131.3277 H   0  0  0  0  0  0  0  0  0  0  0  0
  132.2220  112.1033  130.4854 H   0  0  0  0  0  0  0  0  0  0  0  0
  134.8087  111.7340  129.9367 H   0  0  0  0  0  0  0  0  0  0  0  0
  133.5035  111.6675  128.6588 H   0  0  0  0  0  0  0  0  0  0  0  0
  135.7809  113.0437  128.3296 H   0  0  0  0  0  0  0  0  0  0  0  0
  134.1806  113.5562  127.6436 H   0  0  0  0  0  0  0  0  0  0  0  0
  135.4032  114.5388  130.2537 H   0  0  0  0  0  0  0  0  0  0  0  0
  135.3483  115.4340  128.6749 H   0  0  0  0  0  0  0  0  0  0  0  0
  133.5331  115.8301  130.6003 H   0  0  0  0  0  0  0  0  0  0  0  0
  133.1331  115.8752  128.8193 H   0  0  0  0  0  0  0  0  0  0  0  0
  130.7291  116.3329  129.4898 H   0  0  0  0  0  0  0  0  0  0  0  0
  128.8582  117.0896  130.9548 H   0  0  0  0  0  0  0  0  0  0  0  0
  131.9794  122.3437  132.9625 H   0  0  0  0  0  0  0  0  0  0  0  0
  133.0399  121.8919  130.7496 H   0  0  0  0  0  0  0  0  0  0  0  0
  1  2  1  0
  2  3  2  0
  3  4  1  0
  4  5  2  0
  5  6  1  0
  6  7  2  0
  6  8  1  0
  8  9  1  0
  8 10  1  0
 10 11  2  0
 11 12  1  0
 12 13  2  0
 13 14  1  0
 14 15  1  0
 14 16  1  0
 14 17  1  0
 13 18  1  0
 18 19  2  0
 19 20  1  0
 20 21  1  0
 21 22  2  0
 21 23  2  0
 21 24  1  0
 24 25  2  0
 25 26  1  0
 26 27  2  0
 27 28  1  0
 28 29  1  0
 29 30  1  0
 30 31  1  0
 31 32  1  0
 32 33  1  0
 27 34  1  0
 34 35  2  0
  5 36  1  0
 36 37  2  0
 37  2  1  0
 19 10  1  0
 35 24  1  0
 33 28  1  0
  1 38  1  0
  1 39  1  0
  1 40  1  0
  3 41  1  0
  4 42  1  0
  9 43  1  0
  9 44  1  0
  9 45  1  0
 11 46  1  0
 12 47  1  0
 18 48  1  0
 20 49  1  0
 25 50  1  0
 26 51  1  0
 28 52  1  0
 29 53  1  0
 29 54  1  0
 30 55  1  0
 30 56  1  0
 31 57  1  0
 31 58  1  0
 32 59  1  0
 32 60  1  0
 33 61  1  0
 33 62  1  0
 34 63  1  0
 35 64  1  0
 36 65  1  0
 37 66  1  0
M  END
$$$$

     RDKit          3D

 66 69  0  0  0  0  0  0  0  0999 V2000
  126.2660  115.0010  138.1430 C   0  0  0  0  0  0  0  0  0  0  0  0
  127.1890  116.1560  137.8820 C   0  0  0  0  0  0  0  0  0  0  0  0
  126.7060  117.3260  137.2790 C   0  0  0  0  0  0  0  0  0  0  0  0
  127.5570  118.4110  137.0580 C   0  0  0  0  0  0  0  0  0  0  0  0
  128.8910  118.3340  137.4650 C   0  0  0  0  0  0  0  0  0  0  0  0
  129.7920  119.4750  137.2000 C   0  0  0  0  0  0  0  0  0  0  0  0
  130.7790  119.5610  137.9310 O   0  0  0  0  0  0  0  0  0  0  0  0
  129.4710  120.3710  136.1660 N   0  0  0  0  0  0  0  0  0  0  0  0
  128.2280  121.1480  136.2050 C   0  0  0  0  0  0  0  0  0  0  0  0
  130.2500  120.4240  134.9410 C   0  0  0  0  0  0  0  0  0  0  0  0
  130.7850  121.6530  134.5090 C   0  0  0  0  0  0  0  0  0  0  0  0
  131.5650  121.7570  133.3490 C   0  0  0  0  0  0  0  0  0  0  0  0
  131.8450  120.6300  132.5750 C   0  0  0  0  0  0  0  0  0  0  0  0
  132.7100  120.7210  131.3430 C   0  0  0  0  0  0  0  0  0  0  0  0
  133.6940  121.6560  131.4470 F   0  0  0  0  0  0  0  0  0  0  0  0
  131.9920  121.0530  130.2350 F   0  0  0  0  0  0  0  0  0  0  0  0
  133.3390  119.5510  131.0440 F   0  0  0  0  0  0  0  0  0  0  0  0
  131.3440  119.3940  132.9970 C   0  0  0  0  0  0  0  0  0  0  0  0
  130.5620  119.2850  134.1570 C   0  0  0  0  0  0  0  0  0  0  0  0
  130.2270  117.9510  134.5440 N   0  0  0  0  0  0  0  0  0  0  0  0
  129.0680  117.1400  133.6230 S   0  0  0  0  0  6  0  0  0  0  0  0
  128.2960  118.1450  132.9240 O   0  0  0  0  0  0  0  0  0  0  0  0
  128.4080  116.1320  134.4300 O   0  0  0  0  0  0  0  0  0  0  0  0
  130.0770  116.3190  132.4120 C   0  0  0  0  0  0  0  0  0  0  0  0
  130.8220  117.0710  131.5010 C   0  0  0  0  0  0  0  0  0  0  0  0
  131.5960  116.4160  130.5430 C   0  0  0  0  0  0  0  0  0  0  0  0
  131.6390  115.0130  130.4900 C   0  0  0  0  0  0  0  0  0  0  0  0
  132.4910  114.3250  129.4360 C   0  0  0  0  0  0  0  0  0  0  0  0
  131.7590  113.1640  128.7480 C   0  0  0  0  0  0  0  0  0  0  0  0
  132.5710  112.6030  127.5750 C   0  0  0  0  0  0  0  0  0  0  0  0
  134.0840  112.7250  127.7630 C   0  0  0  0  0  0  0  0  0  0  0  0
  134.4780  112.7080  129.2340 C   0  0  0  0  0  0  0  0  0  0  0  0
  133.8470  113.8670  130.0120 C   0  0  0  0  0  0  0  0  0  0  0  0
  130.8980  114.2770  131.4300 C   0  0  0  0  0  0  0  0  0  0  0  0
  130.1190  114.9240  132.3900 C   0  0  0  0  0  0  0  0  0  0  0  0
  129.3890  117.1690  138.0570 C   0  0  0  0  0  0  0  0  0  0  0  0
  128.5340  116.0880  138.2750 C   0  0  0  0  0  0  0  0  0  0  0  0
  126.1531  114.8598  139.2280 H   0  0  0  0  0  0  0  0  0  0  0  0
  125.2827  115.2092  137.6961 H   0  0  0  0  0  0  0  0  0  0  0  0
  126.6859  114.0878  137.6961 H   0  0  0  0  0  0  0  0  0  0  0  0
  125.6499  117.3897  136.9780 H   0  0  0  0  0  0  0  0  0  0  0  0
  127.1794  119.3199  136.5668 H   0  0  0  0  0  0  0  0  0  0  0  0
  127.9406  121.3277  137.2515 H   0  0  0  0  0  0  0  0  0  0  0  0
  128.3816  122.1112  135.6964 H   0  0  0  0  0  0  0  0  0  0  0  0
  127.4294  120.5880  135.6964 H   0  0  0  0  0  0  0  0  0  0  0  0
  130.5847  122.5589  135.0999 H   0  0  0  0  0  0  0  0  0  0  0  0
  131.9607  122.7375  133.0455 H   0  0  0  0  0  0  0  0  0  0  0  0
  131.5670  118.4915  132.4090 H   0  0  0  0  0  0  0  0  0  0  0  0
  131.0420  117.3490  134.7290 H   0  0  0  0  0  0  0  0  0  0  0  0
  130.7987  118.1701  131.5386 H   0  0  0  0  0  0  0  0  0  0  0  0
  132.1796  117.0052  129.8204 H   0  0  0  0  0  0  0  0  0  0  0  0
  132.6898  115.0785  128.6596 H   0  0  0  0  0  0  0  0  0  0  0  0
  131.5912  112.3623  129.4822 H   0  0  0  0  0  0  0  0  0  0  0  0
  130.8036  113.5428  128.3560 H   0  0  0  0  0  0  0  0  0  0  0  0
  132.3202  111.5386  127.4561 H   0  0  0  0  0  0  0  0  0  0  0  0
  132.3076  113.1969  126.6874 H   0  0  0  0  0  0  0  0  0  0  0  0
  134.5745  111.8822  127.2540 H   0  0  0  0  0  0  0  0  0  0  0  0
  134.4035  113.6872  127.3362 H   0  0  0  0  0  0  0  0  0  0  0  0
  134.1454  111.7588  129.6795 H   0  0  0  0  0  0  0  0  0  0  0  0
  135.5712  112.8149  129.2936 H   0  0  0  0  0  0  0  0  0  0  0  0
  133.6931  113.5456  131.0527 H   0  0  0  0  0  0  0  0  0  0  0  0
  134.5363  114.7211  129.9383 H   0  0  0  0  0  0  0  0  0  0  0  0
  130.9324  113.1777  131.4088 H   0  0  0  0  0  0  0  0  0  0  0  0
  129.5431  114.3399  133.1229 H   0  0  0  0  0  0  0  0  0  0  0  0
  130.4477  117.1052  138.3489 H   0  0  0  0  0  0  0  0  0  0  0  0
  128.9170  115.1769  138.7580 H   0  0  0  0  0  0  0  0  0  0  0  0
  1  2  1  0
  2  3  2  0
  3  4  1  0
  4  5  2  0
  5  6  1  0
  6  7  2  0
  6  8  1  0
  8  9  1  0
  8 10  1  0
 10 11  2  0
 11 12  1  0
 12 13  2  0
 13 14  1  0
 14 15  1  0
 14 16  1  0
 14 17  1  0
 13 18  1  0
 18 19  2  0
 19 20  1  0
 20 21  1  0
 21 22  2  0
 21 23  2  0
 21 24  1  0
 24 25  2  0
 25 26  1  0
 26 27  2  0
 27 28  1  0
 28 29  1  0
 29 30  1  0
 30 31  1  0
 31 32  1  0
 32 33  1  0
 27 34  1  0
 34 35  2  0
  5 36  1  0
 36 37  2  0
 37  2  1  0
 19 10  1  0
 35 24  1  0
 33 28  1  0
  1 38  1  0
  1 39  1  0
  1 40  1  0
  3 41  1  0
  4 42  1  0
  9 43  1  0
  9 44  1  0
  9 45  1  0
 11 46  1  0
 12 47  1  0
 18 48  1  0
 20 49  1  0
 25 50  1  0
 26 51  1  0
 28 52  1  0
 29 53  1  0
 29 54  1  0
 30 55  1  0
 30 56  1  0
 31 57  1  0
 31 58  1  0
 32 59  1  0
 32 60  1  0
 33 61  1  0
 33 62  1  0
 34 63  1  0
 35 64  1  0
 36 65  1  0
 37 66  1  0
M  END
$$$$

     RDKit          3D

 66 69  0  0  0  0  0  0  0  0999 V2000
  133.4330  119.6890  129.4160 C   0  0  0  0  0  0  0  0  0  0  0  0
  132.7360  119.9360  130.7220 C   0  0  0  0  0  0  0  0  0  0  0  0
  132.0920  118.8850  131.3910 C   0  0  0  0  0  0  0  0  0  0  0  0
  131.4640  119.1080  132.6180 C   0  0  0  0  0  0  0  0  0  0  0  0
  131.5040  120.3800  133.1920 C   0  0  0  0  0  0  0  0  0  0  0  0
  130.8110  120.6140  134.4770 C   0  0  0  0  0  0  0  0  0  0  0  0
  131.5070  121.0630  135.3880 O   0  0  0  0  0  0  0  0  0  0  0  0
  129.4440  120.3090  134.5770 N   0  0  0  0  0  0  0  0  0  0  0  0
  128.4360  121.1500  133.9240 C   0  0  0  0  0  0  0  0  0  0  0  0
  128.9630  119.2740  135.4770 C   0  0  0  0  0  0  0  0  0  0  0  0
  128.7830  119.5680  136.8430 C   0  0  0  0  0  0  0  0  0  0  0  0
  128.2980  118.6140  137.7500 C   0  0  0  0  0  0  0  0  0  0  0  0
  127.9700  117.3270  137.3230 C   0  0  0  0  0  0  0  0  0  0  0  0
  127.4170  116.3030  138.2810 C   0  0  0  0  0  0  0  0  0  0  0  0
  127.7280  115.0230  137.9350 F   0  0  0  0  0  0  0  0  0  0  0  0
  126.0590  116.3520  138.3600 F   0  0  0  0  0  0  0  0  0  0  0  0
  127.8710  116.4640  139.5560 F   0  0  0  0  0  0  0  0  0  0  0  0
  128.1190  117.0200  135.9670 C   0  0  0  0  0  0  0  0  0  0  0  0
  128.6040  117.9700  135.0550 C   0  0  0  0  0  0  0  0  0  0  0  0
  128.5820  117.5680  133.6850 N   0  0  0  0  0  0  0  0  0  0  0  0
  128.0900  115.9900  133.3420 S   0  0  0  0  0  6  0  0  0  0  0  0
  126.8860  116.0800  132.5450 O   0  0  0  0  0  0  0  0  0  0  0  0
  128.1170  115.1870  134.5490 O   0  0  0  0  0  0  0  0  0  0  0  0
  129.3880  115.4300  132.2650 C   0  0  0  0  0  0  0  0  0  0  0  0
  129.7500  116.1950  131.1550 C   0  0  0  0  0  0  0  0  0  0  0  0
  130.7580  115.7370  130.3060 C   0  0  0  0  0  0  0  0  0  0  0  0
  131.4160  114.5220  130.5610 C   0  0  0  0  0  0  0  0  0  0  0  0
  132.5110  114.0470  129.6200 C   0  0  0  0  0  0  0  0  0  0  0  0
  131.9580  113.2940  128.4000 C   0  0  0  0  0  0  0  0  0  0  0  0
  133.0630  112.9800  127.3850 C   0  0  0  0  0  0  0  0  0  0  0  0
  134.4390  112.7730  128.0210 C   0  0  0  0  0  0  0  0  0  0  0  0
  134.3350  112.2440  129.4440 C   0  0  0  0  0  0  0  0  0  0  0  0
  133.5710  113.2070  130.3610 C   0  0  0  0  0  0  0  0  0  0  0  0
  131.0500  113.7790  131.6960 C   0  0  0  0  0  0  0  0  0  0  0  0
  130.0410  114.2290  132.5490 C   0  0  0  0  0  0  0  0  0  0  0  0
  132.1330  121.4400  132.5310 C   0  0  0  0  0  0  0  0  0  0  0  0
  132.7580  121.2120  131.3040 C   0  0  0  0  0  0  0  0  0  0  0  0
  134.4539  119.3272  129.6079 H   0  0  0  0  0  0  0  0  0  0  0  0
  132.8780  118.9328  128.8414 H   0  0  0  0  0  0  0  0  0  0  0  0
  133.4780  120.6259  128.8414 H   0  0  0  0  0  0  0  0  0  0  0  0
  132.0816  117.8789  130.9464 H   0  0  0  0  0  0  0  0  0  0  0  0
  130.9409  118.2864  133.1293 H   0  0  0  0  0  0  0  0  0  0  0  0
  127.8293  121.6562  134.6893 H   0  0  0  0  0  0  0  0  0  0  0  0
  128.9366  121.9020  133.2964 H   0  0  0  0  0  0  0  0  0  0  0  0
  127.7859  120.5227  133.2964 H   0  0  0  0  0  0  0  0  0  0  0  0
  129.0301  120.5754  137.2092 H   0  0  0  0  0  0  0  0  0  0  0  0
  128.1750  118.8836  138.8093 H   0  0  0  0  0  0  0  0  0  0  0  0
  127.8511  116.0152  135.6084 H   0  0  0  0  0  0  0  0  0  0  0  0
  128.1260  118.2440  133.0550 H   0  0  0  0  0  0  0  0  0  0  0  0
  129.2449  117.1507  130.9514 H   0  0  0  0  0  0  0  0  0  0  0  0
  131.0409  116.3342  129.4266 H   0  0  0  0  0  0  0  0  0  0  0  0
  133.0038  114.9527  129.2367 H   0  0  0  0  0  0  0  0  0  0  0  0
  131.5044  112.3505  128.7378 H   0  0  0  0  0  0  0  0  0  0  0  0
  131.2104  113.9344  127.9091 H   0  0  0  0  0  0  0  0  0  0  0  0
  132.7881  112.0621  126.8447 H   0  0  0  0  0  0  0  0  0  0  0  0
  133.1442  113.8505  126.7174 H   0  0  0  0  0  0  0  0  0  0  0  0
  135.0058  112.0514  127.4143 H   0  0  0  0  0  0  0  0  0  0  0  0
  134.9470  113.7480  128.0570 H   0  0  0  0  0  0  0  0  0  0  0  0
  133.8089  111.2781  129.4262 H   0  0  0  0  0  0  0  0  0  0  0  0
  135.3550  112.1345  129.8410 H   0  0  0  0  0  0  0  0  0  0  0  0
  133.0664  112.6187  131.1416 H   0  0  0  0  0  0  0  0  0  0  0  0
  134.3069  113.9091  130.7799 H   0  0  0  0  0  0  0  0  0  0  0  0
  131.5646  112.8317  131.9148 H   0  0  0  0  0  0  0  0  0  0  0  0
  129.7627  113.6426  133.4371 H   0  0  0  0  0  0  0  0  0  0  0  0
  132.1351  122.4464  132.9751 H   0  0  0  0  0  0  0  0  0  0  0  0
  133.2711  122.0383  130.7902 H   0  0  0  0  0  0  0  0  0  0  0  0
  1  2  1  0
  2  3  2  0
  3  4  1  0
  4  5  2  0
  5  6  1  0
  6  7  2  0
  6  8  1  0
  8  9  1  0
  8 10  1  0
 10 11  2  0
 11 12  1  0
 12 13  2  0
 13 14  1  0
 14 15  1  0
 14 16  1  0
 14 17  1  0
 13 18  1  0
 18 19  2  0
 19 20  1  0
 20 21  1  0
 21 22  2  0
 21 23  2  0
 21 24  1  0
 24 25  2  0
 25 26  1  0
 26 27  2  0
 27 28  1  0
 28 29  1  0
 29 30  1  0
 30 31  1  0
 31 32  1  0
 32 33  1  0
 27 34  1  0
 34 35  2  0
  5 36  1  0
 36 37  2  0
 37  2  1  0
 19 10  1  0
 35 24  1  0
 33 28  1  0
  1 38  1  0
  1 39  1  0
  1 40  1  0
  3 41  1  0
  4 42  1  0
  9 43  1  0
  9 44  1  0
  9 45  1  0
 11 46  1  0
 12 47  1  0
 18 48  1  0
 20 49  1  0
 25 50  1  0
 26 51  1  0
 28 52  1  0
 29 53  1  0
 29 54  1  0
 30 55  1  0
 30 56  1  0
 31 57  1  0
 31 58  1  0
 32 59  1  0
 32 60  1  0
 33 61  1  0
 33 62  1  0
 34 63  1  0
 35 64  1  0
 36 65  1  0
 37 66  1  0
M  END
$$$$

     RDKit          3D

 66 69  0  0  0  0  0  0  0  0999 V2000
  133.6990  119.4620  129.2560 C   0  0  0  0  0  0  0  0  0  0  0  0
  132.9720  119.8800  130.5000 C   0  0  0  0  0  0  0  0  0  0  0  0
  132.2320  118.9420  131.2360 C   0  0  0  0  0  0  0  0  0  0  0  0
  131.5740  119.3230  132.4070 C   0  0  0  0  0  0  0  0  0  0  0  0
  131.6790  120.6390  132.8590 C   0  0  0  0  0  0  0  0  0  0  0  0
  130.9550  121.0410  134.0840 C   0  0  0  0  0  0  0  0  0  0  0  0
  131.5560  121.8100  134.8350 O   0  0  0  0  0  0  0  0  0  0  0  0
  129.6690  120.5270  134.3140 N   0  0  0  0  0  0  0  0  0  0  0  0
  128.4800  121.2290  133.8220 C   0  0  0  0  0  0  0  0  0  0  0  0
  129.4530  119.3940  135.1980 C   0  0  0  0  0  0  0  0  0  0  0  0
  129.6210  119.5540  136.5880 C   0  0  0  0  0  0  0  0  0  0  0  0
  129.4020  118.5020  137.4880 C   0  0  0  0  0  0  0  0  0  0  0  0
  129.0000  117.2460  137.0330 C   0  0  0  0  0  0  0  0  0  0  0  0
  128.7290  116.1150  137.9930 C   0  0  0  0  0  0  0  0  0  0  0  0
  129.8630  115.5320  138.4680 F   0  0  0  0  0  0  0  0  0  0  0  0
  128.0040  115.1160  137.4190 F   0  0  0  0  0  0  0  0  0  0  0  0
  128.0230  116.5050  139.0910 F   0  0  0  0  0  0  0  0  0  0  0  0
  128.8040  117.0700  135.6590 C   0  0  0  0  0  0  0  0  0  0  0  0
  129.0230  118.1190  134.7540 C   0  0  0  0  0  0  0  0  0  0  0  0
  128.6600  117.8430  133.4000 N   0  0  0  0  0  0  0  0  0  0  0  0
  128.0350  116.3130  133.0560 S   0  0  0  0  0  6  0  0  0  0  0  0
  126.9560  116.4940  132.1080 O   0  0  0  0  0  0  0  0  0  0  0  0
  127.8210  115.5750  134.2850 O   0  0  0  0  0  0  0  0  0  0  0  0
  129.3830  115.5600  132.1750 C   0  0  0  0  0  0  0  0  0  0  0  0
  130.0150  116.2550  131.1430 C   0  0  0  0  0  0  0  0  0  0  0  0
  131.0600  115.6470  130.4460 C   0  0  0  0  0  0  0  0  0  0  0  0
  131.4860  114.3500  130.7770 C   0  0  0  0  0  0  0  0  0  0  0  0
  132.6260  113.7120  130.0020 C   0  0  0  0  0  0  0  0  0  0  0  0
  133.8170  114.6620  129.8100 C   0  0  0  0  0  0  0  0  0  0  0  0
  135.0160  113.9430  129.1820 C   0  0  0  0  0  0  0  0  0  0  0  0
  134.6230  112.7960  128.2490 C   0  0  0  0  0  0  0  0  0  0  0  0
  133.2620  113.0260  127.6080 C   0  0  0  0  0  0  0  0  0  0  0  0
  132.1460  113.1400  128.6520 C   0  0  0  0  0  0  0  0  0  0  0  0
  130.8490  113.6780  131.8340 C   0  0  0  0  0  0  0  0  0  0  0  0
  129.8010  114.2780  132.5340 C   0  0  0  0  0  0  0  0  0  0  0  0
  132.4040  121.5870  132.1310 C   0  0  0  0  0  0  0  0  0  0  0  0
  133.0590  121.2010  130.9600 C   0  0  0  0  0  0  0  0  0  0  0  0
  134.6222  118.9312  129.5317 H   0  0  0  0  0  0  0  0  0  0  0  0
  133.0563  118.7955  128.6621 H   0  0  0  0  0  0  0  0  0  0  0  0
  133.9516  120.3528  128.6621 H   0  0  0  0  0  0  0  0  0  0  0  0
  132.1699  117.9003  130.8882 H   0  0  0  0  0  0  0  0  0  0  0  0
  130.9767  118.5905  132.9697 H   0  0  0  0  0  0  0  0  0  0  0  0
  127.8828  121.5816  134.6759 H   0  0  0  0  0  0  0  0  0  0  0  0
  128.7891  122.0895  133.2105 H   0  0  0  0  0  0  0  0  0  0  0  0
  127.8758  120.5427  133.2105 H   0  0  0  0  0  0  0  0  0  0  0  0
  129.9334  120.5338  136.9784 H   0  0  0  0  0  0  0  0  0  0  0  0
  129.5488  118.6687  138.5654 H   0  0  0  0  0  0  0  0  0  0  0  0
  128.4722  116.0915  135.2817 H   0  0  0  0  0  0  0  0  0  0  0  0
  128.0960  118.5820  132.9560 H   0  0  0  0  0  0  0  0  0  0  0  0
  129.6922  117.2734  130.8812 H   0  0  0  0  0  0  0  0  0  0  0  0
  131.5559  116.1898  129.6278 H   0  0  0  0  0  0  0  0  0  0  0  0
  132.9850  112.8736  130.6169 H   0  0  0  0  0  0  0  0  0  0  0  0
  133.5117  115.4889  129.1519 H   0  0  0  0  0  0  0  0  0  0  0  0
  134.1201  115.0382  130.7982 H   0  0  0  0  0  0  0  0  0  0  0  0
  135.5981  114.6766  128.6050 H   0  0  0  0  0  0  0  0  0  0  0  0
  135.5963  113.5034  130.0066 H   0  0  0  0  0  0  0  0  0  0  0  0
  135.3795  112.7082  127.4553 H   0  0  0  0  0  0  0  0  0  0  0  0
  134.5665  111.8745  128.8471 H   0  0  0  0  0  0  0  0  0  0  0  0
  133.2978  113.9573  127.0237 H   0  0  0  0  0  0  0  0  0  0  0  0
  133.0389  112.1610  126.9662 H   0  0  0  0  0  0  0  0  0  0  0  0
  131.3614  113.7997  128.2530 H   0  0  0  0  0  0  0  0  0  0  0  0
  131.7756  112.1222  128.8439 H   0  0  0  0  0  0  0  0  0  0  0  0
  131.1803  112.6669  132.1132 H   0  0  0  0  0  0  0  0  0  0  0  0
  129.3091  113.7451  133.3611 H   0  0  0  0  0  0  0  0  0  0  0  0
  132.4580  122.6294  132.4782 H   0  0  0  0  0  0  0  0  0  0  0  0
  133.6473  121.9387  130.3946 H   0  0  0  0  0  0  0  0  0  0  0  0
  1  2  1  0
  2  3  2  0
  3  4  1  0
  4  5  2  0
  5  6  1  0
  6  7  2  0
  6  8  1  0
  8  9  1  0
  8 10  1  0
 10 11  2  0
 11 12  1  0
 12 13  2  0
 13 14  1  0
 14 15  1  0
 14 16  1  0
 14 17  1  0
 13 18  1  0
 18 19  2  0
 19 20  1  0
 20 21  1  0
 21 22  2  0
 21 23  2  0
 21 24  1  0
 24 25  2  0
 25 26  1  0
 26 27  2  0
 27 28  1  0
 28 29  1  0
 29 30  1  0
 30 31  1  0
 31 32  1  0
 32 33  1  0
 27 34  1  0
 34 35  2  0
  5 36  1  0
 36 37  2  0
 37  2  1  0
 19 10  1  0
 35 24  1  0
 33 28  1  0
  1 38  1  0
  1 39  1  0
  1 40  1  0
  3 41  1  0
  4 42  1  0
  9 43  1  0
  9 44  1  0
  9 45  1  0
 11 46  1  0
 12 47  1  0
 18 48  1  0
 20 49  1  0
 25 50  1  0
 26 51  1  0
 28 52  1  0
 29 53  1  0
 29 54  1  0
 30 55  1  0
 30 56  1  0
 31 57  1  0
 31 58  1  0
 32 59  1  0
 32 60  1  0
 33 61  1  0
 33 62  1  0
 34 63  1  0
 35 64  1  0
 36 65  1  0
 37 66  1  0
M  END
$$$$

     RDKit          3D

 66 69  0  0  0  0  0  0  0  0999 V2000
  125.9830  115.1750  138.5330 C   0  0  0  0  0  0  0  0  0  0  0  0
  126.9440  116.2800  138.2040 C   0  0  0  0  0  0  0  0  0  0  0  0
  128.2130  116.3160  138.8010 C   0  0  0  0  0  0  0  0  0  0  0  0
  129.1180  117.3290  138.4780 C   0  0  0  0  0  0  0  0  0  0  0  0
  128.7620  118.2950  137.5350 C   0  0  0  0  0  0  0  0  0  0  0  0
  129.7150  119.3820  137.2210 C   0  0  0  0  0  0  0  0  0  0  0  0
  130.7350  119.4170  137.9090 O   0  0  0  0  0  0  0  0  0  0  0  0
  129.4000  120.2860  136.1930 N   0  0  0  0  0  0  0  0  0  0  0  0
  128.1740  121.0870  136.2460 C   0  0  0  0  0  0  0  0  0  0  0  0
  130.1680  120.3260  134.9600 C   0  0  0  0  0  0  0  0  0  0  0  0
  130.7960  121.5260  134.5700 C   0  0  0  0  0  0  0  0  0  0  0  0
  131.5700  121.6140  133.4040 C   0  0  0  0  0  0  0  0  0  0  0  0
  131.7500  120.5010  132.5820 C   0  0  0  0  0  0  0  0  0  0  0  0
  132.6050  120.5740  131.3430 C   0  0  0  0  0  0  0  0  0  0  0  0
  133.5690  121.5330  131.4130 F   0  0  0  0  0  0  0  0  0  0  0  0
  131.8750  120.8550  130.2290 F   0  0  0  0  0  0  0  0  0  0  0  0
  133.2590  119.4090  131.0760 F   0  0  0  0  0  0  0  0  0  0  0  0
  131.1550  119.2940  132.9620 C   0  0  0  0  0  0  0  0  0  0  0  0
  130.3790  119.2000  134.1270 C   0  0  0  0  0  0  0  0  0  0  0  0
  129.9410  117.8820  134.4650 N   0  0  0  0  0  0  0  0  0  0  0  0
  128.8500  117.1310  133.4190 S   0  0  0  0  0  6  0  0  0  0  0  0
  128.2820  118.1630  132.5790 O   0  0  0  0  0  0  0  0  0  0  0  0
  127.9920  116.2280  134.1600 O   0  0  0  0  0  0  0  0  0  0  0  0
  129.9350  116.1630  132.3960 C   0  0  0  0  0  0  0  0  0  0  0  0
  130.7520  116.7940  131.4560 C   0  0  0  0  0  0  0  0  0  0  0  0
  131.5860  116.0230  130.6450 C   0  0  0  0  0  0  0  0  0  0  0  0
  131.6180  114.6240  130.7710 C   0  0  0  0  0  0  0  0  0  0  0  0
  132.5360  113.8090  129.8760 C   0  0  0  0  0  0  0  0  0  0  0  0
  133.9200  114.4520  129.7040 C   0  0  0  0  0  0  0  0  0  0  0  0
  134.8790  113.5300  128.9440 C   0  0  0  0  0  0  0  0  0  0  0  0
  134.1810  112.6170  127.9340 C   0  0  0  0  0  0  0  0  0  0  0  0
  132.8990  113.2390  127.3960 C   0  0  0  0  0  0  0  0  0  0  0  0
  131.8830  113.5150  128.5100 C   0  0  0  0  0  0  0  0  0  0  0  0
  130.8030  114.0130  131.7390 C   0  0  0  0  0  0  0  0  0  0  0  0
  129.9640  114.7770  132.5520 C   0  0  0  0  0  0  0  0  0  0  0  0
  127.4970  118.2790  136.9400 C   0  0  0  0  0  0  0  0  0  0  0  0
  126.5960  117.2640  137.2670 C   0  0  0  0  0  0  0  0  0  0  0  0
  125.8974  115.0766  139.6252 H   0  0  0  0  0  0  0  0  0  0  0  0
  124.9959  115.4087  138.1074 H   0  0  0  0  0  0  0  0  0  0  0  0
  126.3513  114.2299  138.1074 H   0  0  0  0  0  0  0  0  0  0  0  0
  128.4969  115.5411  139.5283 H   0  0  0  0  0  0  0  0  0  0  0  0
  130.1046  117.3657  138.9631 H   0  0  0  0  0  0  0  0  0  0  0  0
  127.8986  121.2669  137.2957 H   0  0  0  0  0  0  0  0  0  0  0  0
  128.3428  122.0496  135.7411 H   0  0  0  0  0  0  0  0  0  0  0  0
  127.3603  120.5458  135.7411 H   0  0  0  0  0  0  0  0  0  0  0  0
  130.6754  122.4203  135.1991 H   0  0  0  0  0  0  0  0  0  0  0  0
  132.0405  122.5711  133.1344 H   0  0  0  0  0  0  0  0  0  0  0  0
  131.2981  118.4012  132.3356 H   0  0  0  0  0  0  0  0  0  0  0  0
  130.7030  117.2410  134.7300 H   0  0  0  0  0  0  0  0  0  0  0  0
  130.7385  117.8893  131.3555 H   0  0  0  0  0  0  0  0  0  0  0  0
  132.2258  116.5163  129.8985 H   0  0  0  0  0  0  0  0  0  0  0  0
  132.6948  112.8490  130.3890 H   0  0  0  0  0  0  0  0  0  0  0  0
  133.8098  115.3923  129.1440 H   0  0  0  0  0  0  0  0  0  0  0  0
  134.3402  114.6374  130.7035 H   0  0  0  0  0  0  0  0  0  0  0  0
  135.6062  114.1541  128.4038 H   0  0  0  0  0  0  0  0  0  0  0  0
  135.3582  112.8786  129.6896 H   0  0  0  0  0  0  0  0  0  0  0  0
  134.8648  112.4287  127.0932 H   0  0  0  0  0  0  0  0  0  0  0  0
  133.9160  111.6810  128.4475 H   0  0  0  0  0  0  0  0  0  0  0  0
  133.1466  114.1881  126.8981 H   0  0  0  0  0  0  0  0  0  0  0  0
  132.4454  112.5264  126.6914 H   0  0  0  0  0  0  0  0  0  0  0  0
  131.2751  114.3846  128.2198 H   0  0  0  0  0  0  0  0  0  0  0  0
  131.2768  112.6049  128.6292 H   0  0  0  0  0  0  0  0  0  0  0  0
  130.8264  112.9197  131.8575 H   0  0  0  0  0  0  0  0  0  0  0  0
  129.3313  114.2905  133.3090 H   0  0  0  0  0  0  0  0  0  0  0  0
  127.2137  119.0604  136.2195 H   0  0  0  0  0  0  0  0  0  0  0  0
  125.6068  117.2358  136.7867 H   0  0  0  0  0  0  0  0  0  0  0  0
  1  2  1  0
  2  3  2  0
  3  4  1  0
  4  5  2  0
  5  6  1  0
  6  7  2  0
  6  8  1  0
  8  9  1  0
  8 10  1  0
 10 11  2  0
 11 12  1  0
 12 13  2  0
 13 14  1  0
 14 15  1  0
 14 16  1  0
 14 17  1  0
 13 18  1  0
 18 19  2  0
 19 20  1  0
 20 21  1  0
 21 22  2  0
 21 23  2  0
 21 24  1  0
 24 25  2  0
 25 26  1  0
 26 27  2  0
 27 28  1  0
 28 29  1  0
 29 30  1  0
 30 31  1  0
 31 32  1  0
 32 33  1  0
 27 34  1  0
 34 35  2  0
  5 36  1  0
 36 37  2  0
 37  2  1  0
 19 10  1  0
 35 24  1  0
 33 28  1  0
  1 38  1  0
  1 39  1  0
  1 40  1  0
  3 41  1  0
  4 42  1  0
  9 43  1  0
  9 44  1  0
  9 45  1  0
 11 46  1  0
 12 47  1  0
 18 48  1  0
 20 49  1  0
 25 50  1  0
 26 51  1  0
 28 52  1  0
 29 53  1  0
 29 54  1  0
 30 55  1  0
 30 56  1  0
 31 57  1  0
 31 58  1  0
 32 59  1  0
 32 60  1  0
 33 61  1  0
 33 62  1  0
 34 63  1  0
 35 64  1  0
 36 65  1  0
 37 66  1  0
M  END
$$$$

