
     RDKit          3D

 62 66  0  0  0  0  0  0  0  0999 V2000
  129.1660  117.6920  136.7760 C   0  0  0  0  0  0  0  0  0  0  0  0
  129.2110  118.6610  135.6320 C   0  0  0  0  0  0  0  0  0  0  0  0
  128.7900  119.9820  135.8040 C   0  0  0  0  0  0  0  0  0  0  0  0
  128.8140  120.8650  134.7280 C   0  0  0  0  0  0  0  0  0  0  0  0
  129.2460  120.4250  133.4730 C   0  0  0  0  0  0  0  0  0  0  0  0
  129.6500  119.0980  133.2620 C   0  0  0  0  0  0  0  0  0  0  0  0
  130.0810  118.7270  131.9810 N   0  0  0  0  0  0  0  0  0  0  0  0
  131.3230  118.8120  131.3070 C   0  0  0  0  0  0  0  0  0  0  0  0
  131.9420  120.0060  131.2180 N   0  0  0  0  0  0  0  0  0  0  0  0
  133.0930  120.0430  130.5480 C   0  0  0  0  0  0  0  0  0  0  0  0
  133.6880  119.0110  129.9480 N   0  0  0  0  0  0  0  0  0  0  0  0
  133.0720  117.8310  130.0360 C   0  0  0  0  0  0  0  0  0  0  0  0
  133.6950  116.7580  129.4170 C   0  0  0  0  0  0  0  0  0  0  0  0
  133.1400  115.4850  129.4350 C   0  0  0  0  0  0  0  0  0  0  0  0
  133.8400  114.4030  128.8220 N   0  0  0  0  0  0  0  0  0  0  0  0
  135.0190  113.6240  129.7590 S   0  0  0  0  0  6  0  0  0  0  0  0
  134.3130  112.5580  130.4380 O   0  0  0  0  0  0  0  0  0  0  0  0
  135.7820  114.6040  130.5010 O   0  0  0  0  0  0  0  0  0  0  0  0
  136.0470  112.8930  128.5040 C   0  0  0  0  0  0  0  0  0  0  0  0
  137.2460  112.2240  129.1410 C   0  0  0  0  0  0  0  0  0  0  0  0
  137.1330  112.3200  130.5590 O   0  0  0  0  0  0  0  0  0  0  0  0
  131.9500  115.2530  130.1080 C   0  0  0  0  0  0  0  0  0  0  0  0
  131.2930  116.3090  130.7620 C   0  0  0  0  0  0  0  0  0  0  0  0
  130.0860  116.0660  131.4780 N   0  0  0  0  0  0  0  0  0  0  0  0
  130.1990  115.0080  132.5160 C   0  0  0  0  0  0  0  0  0  0  0  0
  129.3150  113.7920  132.2210 C   0  0  0  0  0  0  0  0  0  0  0  0
  127.8650  114.1960  132.0210 C   0  0  0  0  0  0  0  0  0  0  0  0
  127.6740  115.5440  131.3440 C   0  0  0  0  0  0  0  0  0  0  0  0
  128.9250  115.9510  130.5610 C   0  0  0  0  0  0  0  0  0  0  0  0
  126.8450  113.7880  133.0650 C   0  0  0  0  0  0  0  0  0  0  0  0
  126.8640  113.0940  131.7370 C   0  0  0  0  0  0  0  0  0  0  0  0
  131.8550  117.6350  130.7140 C   0  0  0  0  0  0  0  0  0  0  0  0
  129.6290  118.2310  134.3600 C   0  0  0  0  0  0  0  0  0  0  0  0
  129.1917  118.2453  137.7264 H   0  0  0  0  0  0  0  0  0  0  0  0
  128.2395  117.1017  136.7203 H   0  0  0  0  0  0  0  0  0  0  0  0
  130.0338  117.0184  136.7203 H   0  0  0  0  0  0  0  0  0  0  0  0
  128.4398  120.3242  136.7890 H   0  0  0  0  0  0  0  0  0  0  0  0
  128.4933  121.9083  134.8650 H   0  0  0  0  0  0  0  0  0  0  0  0
  129.2696  121.1347  132.6329 H   0  0  0  0  0  0  0  0  0  0  0  0
  129.4750  118.0630  131.4950 H   0  0  0  0  0  0  0  0  0  0  0  0
  133.6006  121.0167  130.4836 H   0  0  0  0  0  0  0  0  0  0  0  0
  134.6520  116.9189  128.8991 H   0  0  0  0  0  0  0  0  0  0  0  0
  133.2490  113.6930  128.3830 H   0  0  0  0  0  0  0  0  0  0  0  0
  135.4650  112.1437  127.9473 H   0  0  0  0  0  0  0  0  0  0  0  0
  136.3947  113.6801  127.8188 H   0  0  0  0  0  0  0  0  0  0  0  0
  137.2781  111.1652  128.8446 H   0  0  0  0  0  0  0  0  0  0  0  0
  138.1691  112.7207  128.8076 H   0  0  0  0  0  0  0  0  0  0  0  0
  136.8280  111.4540  130.8820 H   0  0  0  0  0  0  0  0  0  0  0  0
  131.5197  114.2409  130.1299 H   0  0  0  0  0  0  0  0  0  0  0  0
  131.2467  114.6769  132.5681 H   0  0  0  0  0  0  0  0  0  0  0  0
  129.8607  115.4407  133.4691 H   0  0  0  0  0  0  0  0  0  0  0  0
  129.6783  113.2988  131.3074 H   0  0  0  0  0  0  0  0  0  0  0  0
  129.3683  113.1087  133.0813 H   0  0  0  0  0  0  0  0  0  0  0  0
  126.8218  115.4804  130.6514 H   0  0  0  0  0  0  0  0  0  0  0  0
  127.4866  116.3007  132.1200 H   0  0  0  0  0  0  0  0  0  0  0  0
  129.1393  115.1897  129.7965 H   0  0  0  0  0  0  0  0  0  0  0  0
  128.7480  116.9246  130.0806 H   0  0  0  0  0  0  0  0  0  0  0  0
  127.1692  113.2520  133.9692 H   0  0  0  0  0  0  0  0  0  0  0  0
  126.0809  114.3188  133.6519 H   0  0  0  0  0  0  0  0  0  0  0  0
  127.2022  112.0495  131.6682 H   0  0  0  0  0  0  0  0  0  0  0  0
  126.1196  112.9064  130.9491 H   0  0  0  0  0  0  0  0  0  0  0  0
  129.9475  117.1868  134.2249 H   0  0  0  0  0  0  0  0  0  0  0  0
  1  2  1  0
  2  3  2  0
  3  4  1  0
  4  5  2  0
  5  6  1  0
  6  7  1  0
  7  8  1  0
  8  9  2  0
  9 10  1  0
 10 11  2  0
 11 12  1  0
 12 13  2  0
 13 14  1  0
 14 15  1  0
 15 16  1  0
 16 17  2  0
 16 18  2  0
 16 19  1  0
 19 20  1  0
 20 21  1  0
 14 22  2  0
 22 23  1  0
 23 24  1  0
 24 25  1  0
 25 26  1  0
 26 27  1  0
 27 28  1  0
 28 29  1  0
 27 30  1  0
 30 31  1  0
 23 32  2  0
  6 33  2  0
 33  2  1  0
 32  8  1  0
 32 12  1  0
 29 24  1  0
 31 27  1  0
  1 34  1  0
  1 35  1  0
  1 36  1  0
  3 37  1  0
  4 38  1  0
  5 39  1  0
  7 40  1  0
 10 41  1  0
 13 42  1  0
 15 43  1  0
 19 44  1  0
 19 45  1  0
 20 46  1  0
 20 47  1  0
 21 48  1  0
 22 49  1  0
 25 50  1  0
 25 51  1  0
 26 52  1  0
 26 53  1  0
 28 54  1  0
 28 55  1  0
 29 56  1  0
 29 57  1  0
 30 58  1  0
 30 59  1  0
 31 60  1  0
 31 61  1  0
 33 62  1  0
M  END
$$$$

     RDKit          3D

 62 66  0  0  0  0  0  0  0  0999 V2000
  132.7050  113.2250  129.9430 C   0  0  0  0  0  0  0  0  0  0  0  0
  132.6960  114.7240  129.8890 C   0  0  0  0  0  0  0  0  0  0  0  0
  133.7020  115.4170  129.2120 C   0  0  0  0  0  0  0  0  0  0  0  0
  133.6950  116.8090  129.1910 C   0  0  0  0  0  0  0  0  0  0  0  0
  132.6890  117.5120  129.8590 C   0  0  0  0  0  0  0  0  0  0  0  0
  131.6790  116.8460  130.5710 C   0  0  0  0  0  0  0  0  0  0  0  0
  130.6960  117.6140  131.2100 N   0  0  0  0  0  0  0  0  0  0  0  0
  130.7430  118.6830  132.1370 C   0  0  0  0  0  0  0  0  0  0  0  0
  131.4890  119.7680  131.8520 N   0  0  0  0  0  0  0  0  0  0  0  0
  131.5290  120.7340  132.7660 C   0  0  0  0  0  0  0  0  0  0  0  0
  130.9050  120.7270  133.9460 N   0  0  0  0  0  0  0  0  0  0  0  0
  130.1690  119.6510  134.2270 C   0  0  0  0  0  0  0  0  0  0  0  0
  129.5160  119.6480  135.4510 C   0  0  0  0  0  0  0  0  0  0  0  0
  128.7300  118.5760  135.8530 C   0  0  0  0  0  0  0  0  0  0  0  0
  128.0430  118.6380  137.1030 N   0  0  0  0  0  0  0  0  0  0  0  0
  128.9290  118.2150  138.4860 S   0  0  0  0  0  6  0  0  0  0  0  0
  128.0890  118.6020  139.6000 O   0  0  0  0  0  0  0  0  0  0  0  0
  130.2850  118.7050  138.3700 O   0  0  0  0  0  0  0  0  0  0  0  0
  128.9250  116.4390  138.3830 C   0  0  0  0  0  0  0  0  0  0  0  0
  127.5130  115.9360  138.1650 C   0  0  0  0  0  0  0  0  0  0  0  0
  126.8130  115.9630  139.4060 O   0  0  0  0  0  0  0  0  0  0  0  0
  128.5560  117.4860  135.0140 C   0  0  0  0  0  0  0  0  0  0  0  0
  129.1860  117.4550  133.7600 C   0  0  0  0  0  0  0  0  0  0  0  0
  128.9840  116.3490  132.8850 N   0  0  0  0  0  0  0  0  0  0  0  0
  127.6970  116.3900  132.1420 C   0  0  0  0  0  0  0  0  0  0  0  0
  126.7650  115.2300  132.5080 C   0  0  0  0  0  0  0  0  0  0  0  0
  127.4510  113.8880  132.3230 C   0  0  0  0  0  0  0  0  0  0  0  0
  128.9370  113.8890  132.6420 C   0  0  0  0  0  0  0  0  0  0  0  0
  129.3040  115.0630  133.5540 C   0  0  0  0  0  0  0  0  0  0  0  0
  126.9770  112.9780  131.2070 C   0  0  0  0  0  0  0  0  0  0  0  0
  126.6450  112.6420  132.6290 C   0  0  0  0  0  0  0  0  0  0  0  0
  130.0270  118.5540  133.3580 C   0  0  0  0  0  0  0  0  0  0  0  0
  131.6990  115.4470  130.5690 C   0  0  0  0  0  0  0  0  0  0  0  0
  132.7070  112.8959  130.9926 H   0  0  0  0  0  0  0  0  0  0  0  0
  131.8092  112.8345  129.4380 H   0  0  0  0  0  0  0  0  0  0  0  0
  133.6054  112.8453  129.4380 H   0  0  0  0  0  0  0  0  0  0  0  0
  134.4997  114.8630  128.6955 H   0  0  0  0  0  0  0  0  0  0  0  0
  134.4810  117.3551  128.6488 H   0  0  0  0  0  0  0  0  0  0  0  0
  132.6885  118.6115  129.8262 H   0  0  0  0  0  0  0  0  0  0  0  0
  129.7700  117.5760  130.7800 H   0  0  0  0  0  0  0  0  0  0  0  0
  132.1330  121.6217  132.5269 H   0  0  0  0  0  0  0  0  0  0  0  0
  129.6234  120.5153  136.1190 H   0  0  0  0  0  0  0  0  0  0  0  0
  127.5480  119.5130  137.2860 H   0  0  0  0  0  0  0  0  0  0  0  0
  129.5588  116.1215  137.5419 H   0  0  0  0  0  0  0  0  0  0  0  0
  129.3159  116.0219  139.3228 H   0  0  0  0  0  0  0  0  0  0  0  0
  126.9995  116.5824  137.4380 H   0  0  0  0  0  0  0  0  0  0  0  0
  127.5413  114.9071  137.7771 H   0  0  0  0  0  0  0  0  0  0  0  0
  125.8770  116.1370  139.2030 H   0  0  0  0  0  0  0  0  0  0  0  0
  127.9232  116.6441  135.3316 H   0  0  0  0  0  0  0  0  0  0  0  0
  127.1874  117.3371  132.3730 H   0  0  0  0  0  0  0  0  0  0  0  0
  127.9294  116.3037  131.0703 H   0  0  0  0  0  0  0  0  0  0  0  0
  126.4602  115.3341  133.5598 H   0  0  0  0  0  0  0  0  0  0  0  0
  125.8900  115.2660  131.8424 H   0  0  0  0  0  0  0  0  0  0  0  0
  129.1967  112.9469  133.1470 H   0  0  0  0  0  0  0  0  0  0  0  0
  129.4965  113.9898  131.7003 H   0  0  0  0  0  0  0  0  0  0  0  0
  128.7324  114.9883  134.4908 H   0  0  0  0  0  0  0  0  0  0  0  0
  130.3822  115.0280  133.7692 H   0  0  0  0  0  0  0  0  0  0  0  0
  126.1842  113.3151  130.5230 H   0  0  0  0  0  0  0  0  0  0  0  0
  127.4676  112.4462  130.3784 H   0  0  0  0  0  0  0  0  0  0  0  0
  125.6088  112.7327  132.9869 H   0  0  0  0  0  0  0  0  0  0  0  0
  126.7919  111.7620  133.2725 H   0  0  0  0  0  0  0  0  0  0  0  0
  130.9156  114.8987  131.1127 H   0  0  0  0  0  0  0  0  0  0  0  0
  1  2  1  0
  2  3  2  0
  3  4  1  0
  4  5  2  0
  5  6  1  0
  6  7  1  0
  7  8  1  0
  8  9  2  0
  9 10  1  0
 10 11  2  0
 11 12  1  0
 12 13  2  0
 13 14  1  0
 14 15  1  0
 15 16  1  0
 16 17  2  0
 16 18  2  0
 16 19  1  0
 19 20  1  0
 20 21  1  0
 14 22  2  0
 22 23  1  0
 23 24  1  0
 24 25  1  0
 25 26  1  0
 26 27  1  0
 27 28  1  0
 28 29  1  0
 27 30  1  0
 30 31  1  0
 23 32  2  0
  6 33  2  0
 33  2  1  0
 32  8  1  0
 32 12  1  0
 29 24  1  0
 31 27  1  0
  1 34  1  0
  1 35  1  0
  1 36  1  0
  3 37  1  0
  4 38  1  0
  5 39  1  0
  7 40  1  0
 10 41  1  0
 13 42  1  0
 15 43  1  0
 19 44  1  0
 19 45  1  0
 20 46  1  0
 20 47  1  0
 21 48  1  0
 22 49  1  0
 25 50  1  0
 25 51  1  0
 26 52  1  0
 26 53  1  0
 28 54  1  0
 28 55  1  0
 29 56  1  0
 29 57  1  0
 30 58  1  0
 30 59  1  0
 31 60  1  0
 31 61  1  0
 33 62  1  0
M  END
$$$$

     RDKit          3D

 62 66  0  0  0  0  0  0  0  0999 V2000
  136.0930  114.2160  129.3240 C   0  0  0  0  0  0  0  0  0  0  0  0
  134.6190  114.1460  129.5930 C   0  0  0  0  0  0  0  0  0  0  0  0
  133.9660  112.9130  129.6550 C   0  0  0  0  0  0  0  0  0  0  0  0
  132.5940  112.8640  129.8810 C   0  0  0  0  0  0  0  0  0  0  0  0
  131.8680  114.0480  130.0330 C   0  0  0  0  0  0  0  0  0  0  0  0
  132.4910  115.3030  129.9500 C   0  0  0  0  0  0  0  0  0  0  0  0
  131.7030  116.4510  130.1220 N   0  0  0  0  0  0  0  0  0  0  0  0
  131.9600  117.7390  130.6510 C   0  0  0  0  0  0  0  0  0  0  0  0
  132.9550  118.4790  130.1270 N   0  0  0  0  0  0  0  0  0  0  0  0
  133.1800  119.6710  130.6770 C   0  0  0  0  0  0  0  0  0  0  0  0
  132.5170  120.1990  131.7080 N   0  0  0  0  0  0  0  0  0  0  0  0
  131.5330  119.4630  132.2270 C   0  0  0  0  0  0  0  0  0  0  0  0
  130.8410  120.0160  133.2940 C   0  0  0  0  0  0  0  0  0  0  0  0
  129.8050  119.3360  133.9190 C   0  0  0  0  0  0  0  0  0  0  0  0
  129.0930  119.9640  134.9850 N   0  0  0  0  0  0  0  0  0  0  0  0
  129.4030  119.3950  136.5530 S   0  0  0  0  0  6  0  0  0  0  0  0
  128.7900  120.3690  137.4320 O   0  0  0  0  0  0  0  0  0  0  0  0
  130.8020  119.0510  136.6830 O   0  0  0  0  0  0  0  0  0  0  0  0
  128.4170  117.9150  136.5970 C   0  0  0  0  0  0  0  0  0  0  0  0
  128.0660  117.5690  138.0280 C   0  0  0  0  0  0  0  0  0  0  0  0
  129.1440  117.9550  138.8780 O   0  0  0  0  0  0  0  0  0  0  0  0
  129.4160  118.0850  133.4630 C   0  0  0  0  0  0  0  0  0  0  0  0
  130.0800  117.4950  132.3760 C   0  0  0  0  0  0  0  0  0  0  0  0
  129.6630  116.2230  131.8880 N   0  0  0  0  0  0  0  0  0  0  0  0
  128.3940  116.2570  131.1140 C   0  0  0  0  0  0  0  0  0  0  0  0
  127.2690  115.4630  131.7860 C   0  0  0  0  0  0  0  0  0  0  0  0
  127.6910  114.0310  132.0650 C   0  0  0  0  0  0  0  0  0  0  0  0
  129.1570  113.8660  132.4320 C   0  0  0  0  0  0  0  0  0  0  0  0
  129.7500  115.1820  132.9420 C   0  0  0  0  0  0  0  0  0  0  0  0
  127.0390  112.9140  131.2750 C   0  0  0  0  0  0  0  0  0  0  0  0
  126.6730  113.1150  132.7140 C   0  0  0  0  0  0  0  0  0  0  0  0
  131.1760  118.1890  131.7490 C   0  0  0  0  0  0  0  0  0  0  0  0
  133.8720  115.3290  129.7330 C   0  0  0  0  0  0  0  0  0  0  0  0
  136.6391  114.2419  130.2785 H   0  0  0  0  0  0  0  0  0  0  0  0
  136.4030  113.3316  128.7481 H   0  0  0  0  0  0  0  0  0  0  0  0
  136.3178  115.1258  128.7481 H   0  0  0  0  0  0  0  0  0  0  0  0
  134.5360  111.9812  129.5252 H   0  0  0  0  0  0  0  0  0  0  0  0
  132.0808  111.8929  129.9400 H   0  0  0  0  0  0  0  0  0  0  0  0
  130.7856  113.9955  130.2217 H   0  0  0  0  0  0  0  0  0  0  0  0
  130.8460  116.4750  129.5670 H   0  0  0  0  0  0  0  0  0  0  0  0
  133.9878  120.2769  130.2407 H   0  0  0  0  0  0  0  0  0  0  0  0
  131.1198  121.0175  133.6536 H   0  0  0  0  0  0  0  0  0  0  0  0
  129.1320  120.9850  134.9940 H   0  0  0  0  0  0  0  0  0  0  0  0
  127.4921  118.0764  136.0239 H   0  0  0  0  0  0  0  0  0  0  0  0
  128.9899  117.0863  136.1553 H   0  0  0  0  0  0  0  0  0  0  0  0
  127.1528  118.1063  138.3237 H   0  0  0  0  0  0  0  0  0  0  0  0
  127.8931  116.4863  138.1163 H   0  0  0  0  0  0  0  0  0  0  0  0
  129.9690  117.7760  138.3940 H   0  0  0  0  0  0  0  0  0  0  0  0
  128.5864  117.5548  133.9536 H   0  0  0  0  0  0  0  0  0  0  0  0
  128.0727  117.3040  131.0111 H   0  0  0  0  0  0  0  0  0  0  0  0
  128.5893  115.7930  130.1360 H   0  0  0  0  0  0  0  0  0  0  0  0
  127.0057  115.9501  132.7365 H   0  0  0  0  0  0  0  0  0  0  0  0
  126.4053  115.4428  131.1051 H   0  0  0  0  0  0  0  0  0  0  0  0
  129.2464  113.1029  133.2192 H   0  0  0  0  0  0  0  0  0  0  0  0
  129.7098  113.5599  131.5316 H   0  0  0  0  0  0  0  0  0  0  0  0
  129.1898  115.5141  133.8285 H   0  0  0  0  0  0  0  0  0  0  0  0
  130.8063  115.0230  133.2046 H   0  0  0  0  0  0  0  0  0  0  0  0
  126.3116  113.1524  130.4851 H   0  0  0  0  0  0  0  0  0  0  0  0
  127.4094  112.0662  130.6800 H   0  0  0  0  0  0  0  0  0  0  0  0
  125.6774  113.5007  132.9785 H   0  0  0  0  0  0  0  0  0  0  0  0
  126.6645  112.4752  133.6088 H   0  0  0  0  0  0  0  0  0  0  0  0
  134.3869  116.2990  129.6702 H   0  0  0  0  0  0  0  0  0  0  0  0
  1  2  1  0
  2  3  2  0
  3  4  1  0
  4  5  2  0
  5  6  1  0
  6  7  1  0
  7  8  1  0
  8  9  2  0
  9 10  1  0
 10 11  2  0
 11 12  1  0
 12 13  2  0
 13 14  1  0
 14 15  1  0
 15 16  1  0
 16 17  2  0
 16 18  2  0
 16 19  1  0
 19 20  1  0
 20 21  1  0
 14 22  2  0
 22 23  1  0
 23 24  1  0
 24 25  1  0
 25 26  1  0
 26 27  1  0
 27 28  1  0
 28 29  1  0
 27 30  1  0
 30 31  1  0
 23 32  2  0
  6 33  2  0
 33  2  1  0
 32  8  1  0
 32 12  1  0
 29 24  1  0
 31 27  1  0
  1 34  1  0
  1 35  1  0
  1 36  1  0
  3 37  1  0
  4 38  1  0
  5 39  1  0
  7 40  1  0
 10 41  1  0
 13 42  1  0
 15 43  1  0
 19 44  1  0
 19 45  1  0
 20 46  1  0
 20 47  1  0
 21 48  1  0
 22 49  1  0
 25 50  1  0
 25 51  1  0
 26 52  1  0
 26 53  1  0
 28 54  1  0
 28 55  1  0
 29 56  1  0
 29 57  1  0
 30 58  1  0
 30 59  1  0
 31 60  1  0
 31 61  1  0
 33 62  1  0
M  END
$$$$

     RDKit          3D

 62 66  0  0  0  0  0  0  0  0999 V2000
  136.5070  113.5380  129.1630 C   0  0  0  0  0  0  0  0  0  0  0  0
  135.0520  113.5850  129.5230 C   0  0  0  0  0  0  0  0  0  0  0  0
  134.3690  112.4190  129.8740 C   0  0  0  0  0  0  0  0  0  0  0  0
  133.0120  112.4740  130.1820 C   0  0  0  0  0  0  0  0  0  0  0  0
  132.3320  113.6930  130.1250 C   0  0  0  0  0  0  0  0  0  0  0  0
  132.9840  114.8780  129.7490 C   0  0  0  0  0  0  0  0  0  0  0  0
  132.2430  116.0680  129.7230 N   0  0  0  0  0  0  0  0  0  0  0  0
  132.5390  117.4090  130.0670 C   0  0  0  0  0  0  0  0  0  0  0  0
  133.5490  118.0410  129.4390 N   0  0  0  0  0  0  0  0  0  0  0  0
  133.8110  119.2900  129.8170 C   0  0  0  0  0  0  0  0  0  0  0  0
  133.1730  119.9750  130.7680 N   0  0  0  0  0  0  0  0  0  0  0  0
  132.1740  119.3460  131.3900 C   0  0  0  0  0  0  0  0  0  0  0  0
  131.5080  120.0610  132.3730 C   0  0  0  0  0  0  0  0  0  0  0  0
  130.4590  119.5040  133.0930 C   0  0  0  0  0  0  0  0  0  0  0  0
  129.7740  120.2940  134.0650 N   0  0  0  0  0  0  0  0  0  0  0  0
  130.3940  120.2730  135.6430 S   0  0  0  0  0  6  0  0  0  0  0  0
  131.2500  121.4390  135.7240 O   0  0  0  0  0  0  0  0  0  0  0  0
  130.9010  118.9550  135.9540 O   0  0  0  0  0  0  0  0  0  0  0  0
  128.9320  120.5940  136.6050 C   0  0  0  0  0  0  0  0  0  0  0  0
  128.4160  119.3040  137.2080 C   0  0  0  0  0  0  0  0  0  0  0  0
  128.2050  118.3550  136.1650 O   0  0  0  0  0  0  0  0  0  0  0  0
  130.0320  118.2140  132.8170 C   0  0  0  0  0  0  0  0  0  0  0  0
  130.6690  117.4600  131.8180 C   0  0  0  0  0  0  0  0  0  0  0  0
  130.2130  116.1450  131.5150 N   0  0  0  0  0  0  0  0  0  0  0  0
  129.0130  116.1070  130.6380 C   0  0  0  0  0  0  0  0  0  0  0  0
  127.7920  115.4950  131.3330 C   0  0  0  0  0  0  0  0  0  0  0  0
  128.1020  114.1130  131.8810 C   0  0  0  0  0  0  0  0  0  0  0  0
  129.5210  113.9420  132.3970 C   0  0  0  0  0  0  0  0  0  0  0  0
  130.1530  115.2970  132.7310 C   0  0  0  0  0  0  0  0  0  0  0  0
  127.4450  112.9090  131.2340 C   0  0  0  0  0  0  0  0  0  0  0  0
  126.9820  113.3710  132.5830 C   0  0  0  0  0  0  0  0  0  0  0  0
  131.7780  118.0290  131.0950 C   0  0  0  0  0  0  0  0  0  0  0  0
  134.3490  114.8020  129.4550 C   0  0  0  0  0  0  0  0  0  0  0  0
  137.1116  113.5185  130.0817 H   0  0  0  0  0  0  0  0  0  0  0  0
  136.7094  112.6329  128.5716 H   0  0  0  0  0  0  0  0  0  0  0  0
  136.7673  114.4282  128.5716 H   0  0  0  0  0  0  0  0  0  0  0  0
  134.9024  111.4575  129.9072 H   0  0  0  0  0  0  0  0  0  0  0  0
  132.4757  111.5578  130.4701 H   0  0  0  0  0  0  0  0  0  0  0  0
  131.2625  113.7250  130.3803 H   0  0  0  0  0  0  0  0  0  0  0  0
  131.4040  116.0430  129.1400 H   0  0  0  0  0  0  0  0  0  0  0  0
  134.6309  119.8063  129.2963 H   0  0  0  0  0  0  0  0  0  0  0  0
  131.8177  121.0944  132.5881 H   0  0  0  0  0  0  0  0  0  0  0  0
  129.6000  121.2650  133.7940 H   0  0  0  0  0  0  0  0  0  0  0  0
  129.1745  121.3018  137.4114 H   0  0  0  0  0  0  0  0  0  0  0  0
  128.1573  121.0233  135.9527 H   0  0  0  0  0  0  0  0  0  0  0  0
  129.1543  118.9094  137.9216 H   0  0  0  0  0  0  0  0  0  0  0  0
  127.4692  119.4931  137.7350 H   0  0  0  0  0  0  0  0  0  0  0  0
  128.9600  117.7410  136.1800 H   0  0  0  0  0  0  0  0  0  0  0  0
  129.1931  117.7806  133.3813 H   0  0  0  0  0  0  0  0  0  0  0  0
  128.7665  117.1350  130.3341 H   0  0  0  0  0  0  0  0  0  0  0  0
  129.2544  115.4737  129.7716 H   0  0  0  0  0  0  0  0  0  0  0  0
  127.4873  116.1492  132.1631 H   0  0  0  0  0  0  0  0  0  0  0  0
  126.9832  115.4010  130.5933 H   0  0  0  0  0  0  0  0  0  0  0  0
  129.5008  113.3213  133.3049 H   0  0  0  0  0  0  0  0  0  0  0  0
  130.1225  113.4596  131.6125 H   0  0  0  0  0  0  0  0  0  0  0  0
  129.5468  115.8022  133.4974 H   0  0  0  0  0  0  0  0  0  0  0  0
  131.1737  115.1352  133.1079 H   0  0  0  0  0  0  0  0  0  0  0  0
  126.7969  113.0432  130.3554 H   0  0  0  0  0  0  0  0  0  0  0  0
  127.8072  111.9552  130.8228 H   0  0  0  0  0  0  0  0  0  0  0  0
  125.9947  113.8434  132.6923 H   0  0  0  0  0  0  0  0  0  0  0  0
  126.8650  112.8950  133.5677 H   0  0  0  0  0  0  0  0  0  0  0  0
  134.8865  115.7163  129.1633 H   0  0  0  0  0  0  0  0  0  0  0  0
  1  2  1  0
  2  3  2  0
  3  4  1  0
  4  5  2  0
  5  6  1  0
  6  7  1  0
  7  8  1  0
  8  9  2  0
  9 10  1  0
 10 11  2  0
 11 12  1  0
 12 13  2  0
 13 14  1  0
 14 15  1  0
 15 16  1  0
 16 17  2  0
 16 18  2  0
 16 19  1  0
 19 20  1  0
 20 21  1  0
 14 22  2  0
 22 23  1  0
 23 24  1  0
 24 25  1  0
 25 26  1  0
 26 27  1  0
 27 28  1  0
 28 29  1  0
 27 30  1  0
 30 31  1  0
 23 32  2  0
  6 33  2  0
 33  2  1  0
 32  8  1  0
 32 12  1  0
 29 24  1  0
 31 27  1  0
  1 34  1  0
  1 35  1  0
  1 36  1  0
  3 37  1  0
  4 38  1  0
  5 39  1  0
  7 40  1  0
 10 41  1  0
 13 42  1  0
 15 43  1  0
 19 44  1  0
 19 45  1  0
 20 46  1  0
 20 47  1  0
 21 48  1  0
 22 49  1  0
 25 50  1  0
 25 51  1  0
 26 52  1  0
 26 53  1  0
 28 54  1  0
 28 55  1  0
 29 56  1  0
 29 57  1  0
 30 58  1  0
 30 59  1  0
 31 60  1  0
 31 61  1  0
 33 62  1  0
M  END
$$$$

     RDKit          3D

 62 66  0  0  0  0  0  0  0  0999 V2000
  128.5120  121.3330  135.8070 C   0  0  0  0  0  0  0  0  0  0  0  0
  128.8680  119.9910  135.2400 C   0  0  0  0  0  0  0  0  0  0  0  0
  128.8560  118.8520  136.0470 C   0  0  0  0  0  0  0  0  0  0  0  0
  129.2120  117.6170  135.5130 C   0  0  0  0  0  0  0  0  0  0  0  0
  129.5960  117.5200  134.1730 C   0  0  0  0  0  0  0  0  0  0  0  0
  129.6450  118.6510  133.3420 C   0  0  0  0  0  0  0  0  0  0  0  0
  130.0300  118.4800  132.0050 N   0  0  0  0  0  0  0  0  0  0  0  0
  131.2700  118.5710  131.3280 C   0  0  0  0  0  0  0  0  0  0  0  0
  131.8950  119.7620  131.2570 N   0  0  0  0  0  0  0  0  0  0  0  0
  133.0430  119.8050  130.5850 C   0  0  0  0  0  0  0  0  0  0  0  0
  133.6310  118.7800  129.9630 N   0  0  0  0  0  0  0  0  0  0  0  0
  133.0090  117.6020  130.0330 C   0  0  0  0  0  0  0  0  0  0  0  0
  133.6230  116.5380  129.3920 C   0  0  0  0  0  0  0  0  0  0  0  0
  133.0610  115.2670  129.3900 C   0  0  0  0  0  0  0  0  0  0  0  0
  133.7530  114.1930  128.7550 N   0  0  0  0  0  0  0  0  0  0  0  0
  134.9860  113.4430  129.6450 S   0  0  0  0  0  6  0  0  0  0  0  0
  134.3320  112.3620  130.3530 O   0  0  0  0  0  0  0  0  0  0  0  0
  135.7560  114.4410  130.3560 O   0  0  0  0  0  0  0  0  0  0  0  0
  135.9800  112.7330  128.3510 C   0  0  0  0  0  0  0  0  0  0  0  0
  137.3950  112.5170  128.8440 C   0  0  0  0  0  0  0  0  0  0  0  0
  137.3570  112.1360  130.2170 O   0  0  0  0  0  0  0  0  0  0  0  0
  131.8730  115.0300  130.0640 C   0  0  0  0  0  0  0  0  0  0  0  0
  131.2240  116.0770  130.7390 C   0  0  0  0  0  0  0  0  0  0  0  0
  130.0190  115.8280  131.4550 N   0  0  0  0  0  0  0  0  0  0  0  0
  130.1060  114.6950  132.4130 C   0  0  0  0  0  0  0  0  0  0  0  0
  129.1730  113.5370  132.0470 C   0  0  0  0  0  0  0  0  0  0  0  0
  127.7360  114.0070  131.8990 C   0  0  0  0  0  0  0  0  0  0  0  0
  127.5870  115.4060  131.3240 C   0  0  0  0  0  0  0  0  0  0  0  0
  128.8420  115.8220  130.5510 C   0  0  0  0  0  0  0  0  0  0  0  0
  126.7160  113.5630  132.9280 C   0  0  0  0  0  0  0  0  0  0  0  0
  126.6900  112.9660  131.5540 C   0  0  0  0  0  0  0  0  0  0  0  0
  131.7930  117.4010  130.7120 C   0  0  0  0  0  0  0  0  0  0  0  0
  129.2720  119.8800  133.8970 C   0  0  0  0  0  0  0  0  0  0  0  0
  128.5255  121.2821  136.9057 H   0  0  0  0  0  0  0  0  0  0  0  0
  129.2428  122.0809  135.4656 H   0  0  0  0  0  0  0  0  0  0  0  0
  127.5066  121.6203  135.4656 H   0  0  0  0  0  0  0  0  0  0  0  0
  128.5652  118.9306  137.1049 H   0  0  0  0  0  0  0  0  0  0  0  0
  129.1911  116.7174  136.1457 H   0  0  0  0  0  0  0  0  0  0  0  0
  129.8657  116.5367  133.7602 H   0  0  0  0  0  0  0  0  0  0  0  0
  129.3610  117.9740  131.4230 H   0  0  0  0  0  0  0  0  0  0  0  0
  133.5560  120.7769  130.5375 H   0  0  0  0  0  0  0  0  0  0  0  0
  134.5782  116.7034  128.8722 H   0  0  0  0  0  0  0  0  0  0  0  0
  133.1560  113.4690  128.3480 H   0  0  0  0  0  0  0  0  0  0  0  0
  135.5484  111.7675  128.0483 H   0  0  0  0  0  0  0  0  0  0  0  0
  135.9980  113.4196  127.4918 H   0  0  0  0  0  0  0  0  0  0  0  0
  137.8733  111.7213  128.2540 H   0  0  0  0  0  0  0  0  0  0  0  0
  137.9723  113.4467  128.7330 H   0  0  0  0  0  0  0  0  0  0  0  0
  137.0390  112.9060  130.7190 H   0  0  0  0  0  0  0  0  0  0  0  0
  131.4376  114.0198  130.0702 H   0  0  0  0  0  0  0  0  0  0  0  0
  131.1410  114.3227  132.4242 H   0  0  0  0  0  0  0  0  0  0  0  0
  129.7974  115.0705  133.3998 H   0  0  0  0  0  0  0  0  0  0  0  0
  129.5053  113.0971  131.0951 H   0  0  0  0  0  0  0  0  0  0  0  0
  129.2117  112.7929  132.8562 H   0  0  0  0  0  0  0  0  0  0  0  0
  126.7233  115.4242  130.6430 H   0  0  0  0  0  0  0  0  0  0  0  0
  127.4395  116.1111  132.1553 H   0  0  0  0  0  0  0  0  0  0  0  0
  129.0168  115.1102  129.7308 H   0  0  0  0  0  0  0  0  0  0  0  0
  128.6955  116.8333  130.1439 H   0  0  0  0  0  0  0  0  0  0  0  0
  127.0322  112.9518  133.7862 H   0  0  0  0  0  0  0  0  0  0  0  0
  125.9809  114.0782  133.5638 H   0  0  0  0  0  0  0  0  0  0  0  0
  126.9872  111.9174  131.4053 H   0  0  0  0  0  0  0  0  0  0  0  0
  125.9281  112.8631  130.7673 H   0  0  0  0  0  0  0  0  0  0  0  0
  129.2952  120.7819  133.2676 H   0  0  0  0  0  0  0  0  0  0  0  0
  1  2  1  0
  2  3  2  0
  3  4  1  0
  4  5  2  0
  5  6  1  0
  6  7  1  0
  7  8  1  0
  8  9  2  0
  9 10  1  0
 10 11  2  0
 11 12  1  0
 12 13  2  0
 13 14  1  0
 14 15  1  0
 15 16  1  0
 16 17  2  0
 16 18  2  0
 16 19  1  0
 19 20  1  0
 20 21  1  0
 14 22  2  0
 22 23  1  0
 23 24  1  0
 24 25  1  0
 25 26  1  0
 26 27  1  0
 27 28  1  0
 28 29  1  0
 27 30  1  0
 30 31  1  0
 23 32  2  0
  6 33  2  0
 33  2  1  0
 32  8  1  0
 32 12  1  0
 29 24  1  0
 31 27  1  0
  1 34  1  0
  1 35  1  0
  1 36  1  0
  3 37  1  0
  4 38  1  0
  5 39  1  0
  7 40  1  0
 10 41  1  0
 13 42  1  0
 15 43  1  0
 19 44  1  0
 19 45  1  0
 20 46  1  0
 20 47  1  0
 21 48  1  0
 22 49  1  0
 25 50  1  0
 25 51  1  0
 26 52  1  0
 26 53  1  0
 28 54  1  0
 28 55  1  0
 29 56  1  0
 29 57  1  0
 30 58  1  0
 30 59  1  0
 31 60  1  0
 31 61  1  0
 33 62  1  0
M  END
$$$$

     RDKit          3D

 62 66  0  0  0  0  0  0  0  0999 V2000
  128.2620  116.6630  136.1430 C   0  0  0  0  0  0  0  0  0  0  0  0
  129.1870  117.6350  135.4710 C   0  0  0  0  0  0  0  0  0  0  0  0
  129.8070  118.6490  136.2040 C   0  0  0  0  0  0  0  0  0  0  0  0
  130.6430  119.5590  135.5640 C   0  0  0  0  0  0  0  0  0  0  0  0
  130.8510  119.4650  134.1850 C   0  0  0  0  0  0  0  0  0  0  0  0
  130.2210  118.4740  133.4160 C   0  0  0  0  0  0  0  0  0  0  0  0
  130.4820  118.4320  132.0390 N   0  0  0  0  0  0  0  0  0  0  0  0
  131.6710  118.4590  131.2710 C   0  0  0  0  0  0  0  0  0  0  0  0
  132.3930  119.5940  131.2150 N   0  0  0  0  0  0  0  0  0  0  0  0
  133.4860  119.5820  130.4560 C   0  0  0  0  0  0  0  0  0  0  0  0
  133.9310  118.5510  129.7340 N   0  0  0  0  0  0  0  0  0  0  0  0
  133.2130  117.4280  129.7880 C   0  0  0  0  0  0  0  0  0  0  0  0
  133.6800  116.3570  129.0430 C   0  0  0  0  0  0  0  0  0  0  0  0
  133.0080  115.1410  129.0160 C   0  0  0  0  0  0  0  0  0  0  0  0
  133.5500  114.0530  128.2690 N   0  0  0  0  0  0  0  0  0  0  0  0
  134.5940  113.0020  129.0950 S   0  0  0  0  0  6  0  0  0  0  0  0
  135.4250  112.4140  128.0650 O   0  0  0  0  0  0  0  0  0  0  0  0
  133.8350  112.1710  130.0040 O   0  0  0  0  0  0  0  0  0  0  0  0
  135.5920  114.1450  130.0230 C   0  0  0  0  0  0  0  0  0  0  0  0
  136.4100  113.3990  131.0550 C   0  0  0  0  0  0  0  0  0  0  0  0
  137.0700  112.3050  130.4230 O   0  0  0  0  0  0  0  0  0  0  0  0
  131.8570  114.9650  129.7690 C   0  0  0  0  0  0  0  0  0  0  0  0
  131.3570  116.0190  130.5500 C   0  0  0  0  0  0  0  0  0  0  0  0
  130.1920  115.8300  131.3460 N   0  0  0  0  0  0  0  0  0  0  0  0
  130.2770  114.6780  132.2820 C   0  0  0  0  0  0  0  0  0  0  0  0
  129.2530  113.5830  131.9670 C   0  0  0  0  0  0  0  0  0  0  0  0
  127.8410  114.1400  131.9270 C   0  0  0  0  0  0  0  0  0  0  0  0
  127.7360  115.5550  131.3810 C   0  0  0  0  0  0  0  0  0  0  0  0
  128.9560  115.9090  130.5270 C   0  0  0  0  0  0  0  0  0  0  0  0
  126.8690  113.7390  133.0200 C   0  0  0  0  0  0  0  0  0  0  0  0
  126.7120  113.1680  131.6430 C   0  0  0  0  0  0  0  0  0  0  0  0
  132.0390  117.2890  130.5510 C   0  0  0  0  0  0  0  0  0  0  0  0
  129.3940  117.5640  134.0820 C   0  0  0  0  0  0  0  0  0  0  0  0
  128.3561  116.7619  137.2345 H   0  0  0  0  0  0  0  0  0  0  0  0
  127.2253  116.8765  135.8436 H   0  0  0  0  0  0  0  0  0  0  0  0
  128.5265  115.6381  135.8436 H   0  0  0  0  0  0  0  0  0  0  0  0
  129.6346  118.7285  137.2875 H   0  0  0  0  0  0  0  0  0  0  0  0
  131.1397  120.3516  136.1428 H   0  0  0  0  0  0  0  0  0  0  0  0
  131.5228  120.1830  133.6918 H   0  0  0  0  0  0  0  0  0  0  0  0
  129.7110  118.0900  131.4620 H   0  0  0  0  0  0  0  0  0  0  0  0
  134.0782  120.5083  130.4201 H   0  0  0  0  0  0  0  0  0  0  0  0
  134.6050  116.4722  128.4589 H   0  0  0  0  0  0  0  0  0  0  0  0
  132.8680  113.4960  127.7490 H   0  0  0  0  0  0  0  0  0  0  0  0
  136.2681  114.6776  129.3380 H   0  0  0  0  0  0  0  0  0  0  0  0
  134.9357  114.8647  130.5342 H   0  0  0  0  0  0  0  0  0  0  0  0
  137.1572  114.0769  131.4933 H   0  0  0  0  0  0  0  0  0  0  0  0
  135.7503  113.0245  131.8516 H   0  0  0  0  0  0  0  0  0  0  0  0
  137.4660  112.6450  129.6010 H   0  0  0  0  0  0  0  0  0  0  0  0
  131.3344  113.9972  129.7543 H   0  0  0  0  0  0  0  0  0  0  0  0
  131.2862  114.2453  132.2166 H   0  0  0  0  0  0  0  0  0  0  0  0
  130.0603  115.0545  133.2926 H   0  0  0  0  0  0  0  0  0  0  0  0
  129.4913  113.1410  130.9883 H   0  0  0  0  0  0  0  0  0  0  0  0
  129.3032  112.8233  132.7609 H   0  0  0  0  0  0  0  0  0  0  0  0
  126.8296  115.6351  130.7630 H   0  0  0  0  0  0  0  0  0  0  0  0
  127.6891  116.2538  132.2292 H   0  0  0  0  0  0  0  0  0  0  0  0
  129.0300  115.2021  129.6874 H   0  0  0  0  0  0  0  0  0  0  0  0
  128.8425  116.9340  130.1442 H   0  0  0  0  0  0  0  0  0  0  0  0
  127.2066  113.0956  133.8459 H   0  0  0  0  0  0  0  0  0  0  0  0
  126.2120  114.2857  133.7125 H   0  0  0  0  0  0  0  0  0  0  0  0
  126.9346  112.1064  131.4603 H   0  0  0  0  0  0  0  0  0  0  0  0
  125.8925  113.1238  130.9106 H   0  0  0  0  0  0  0  0  0  0  0  0
  128.8929  116.7729  133.5049 H   0  0  0  0  0  0  0  0  0  0  0  0
  1  2  1  0
  2  3  2  0
  3  4  1  0
  4  5  2  0
  5  6  1  0
  6  7  1  0
  7  8  1  0
  8  9  2  0
  9 10  1  0
 10 11  2  0
 11 12  1  0
 12 13  2  0
 13 14  1  0
 14 15  1  0
 15 16  1  0
 16 17  2  0
 16 18  2  0
 16 19  1  0
 19 20  1  0
 20 21  1  0
 14 22  2  0
 22 23  1  0
 23 24  1  0
 24 25  1  0
 25 26  1  0
 26 27  1  0
 27 28  1  0
 28 29  1  0
 27 30  1  0
 30 31  1  0
 23 32  2  0
  6 33  2  0
 33  2  1  0
 32  8  1  0
 32 12  1  0
 29 24  1  0
 31 27  1  0
  1 34  1  0
  1 35  1  0
  1 36  1  0
  3 37  1  0
  4 38  1  0
  5 39  1  0
  7 40  1  0
 10 41  1  0
 13 42  1  0
 15 43  1  0
 19 44  1  0
 19 45  1  0
 20 46  1  0
 20 47  1  0
 21 48  1  0
 22 49  1  0
 25 50  1  0
 25 51  1  0
 26 52  1  0
 26 53  1  0
 28 54  1  0
 28 55  1  0
 29 56  1  0
 29 57  1  0
 30 58  1  0
 30 59  1  0
 31 60  1  0
 31 61  1  0
 33 62  1  0
M  END
$$$$

     RDKit          3D

 62 66  0  0  0  0  0  0  0  0999 V2000
  135.0440  116.7610  128.9390 C   0  0  0  0  0  0  0  0  0  0  0  0
  133.7470  116.2650  129.5080 C   0  0  0  0  0  0  0  0  0  0  0  0
  133.4230  114.9080  129.4590 C   0  0  0  0  0  0  0  0  0  0  0  0
  132.2060  114.4650  129.9680 C   0  0  0  0  0  0  0  0  0  0  0  0
  131.3030  115.3800  130.5150 C   0  0  0  0  0  0  0  0  0  0  0  0
  131.5880  116.7540  130.5540 C   0  0  0  0  0  0  0  0  0  0  0  0
  130.6400  117.6160  131.1250 N   0  0  0  0  0  0  0  0  0  0  0  0
  130.7270  118.6840  132.0500 C   0  0  0  0  0  0  0  0  0  0  0  0
  131.4380  119.7810  131.7220 N   0  0  0  0  0  0  0  0  0  0  0  0
  131.5170  120.7470  132.6350 C   0  0  0  0  0  0  0  0  0  0  0  0
  130.9650  120.7290  133.8500 N   0  0  0  0  0  0  0  0  0  0  0  0
  130.2640  119.6410  134.1730 C   0  0  0  0  0  0  0  0  0  0  0  0
  129.6860  119.6270  135.4330 C   0  0  0  0  0  0  0  0  0  0  0  0
  128.9430  118.5420  135.8800 C   0  0  0  0  0  0  0  0  0  0  0  0
  128.3310  118.5910  137.1690 N   0  0  0  0  0  0  0  0  0  0  0  0
  129.0960  117.7290  138.4130 S   0  0  0  0  0  6  0  0  0  0  0  0
  129.9140  118.7080  139.0980 O   0  0  0  0  0  0  0  0  0  0  0  0
  129.6740  116.5130  137.8850 O   0  0  0  0  0  0  0  0  0  0  0  0
  127.7190  117.3280  139.4670 C   0  0  0  0  0  0  0  0  0  0  0  0
  126.9700  116.1360  138.9090 C   0  0  0  0  0  0  0  0  0  0  0  0
  126.5280  116.4410  137.5890 O   0  0  0  0  0  0  0  0  0  0  0  0
  128.7350  117.4500  135.0510 C   0  0  0  0  0  0  0  0  0  0  0  0
  129.2890  117.4300  133.7610 C   0  0  0  0  0  0  0  0  0  0  0  0
  129.0530  116.3220  132.8980 N   0  0  0  0  0  0  0  0  0  0  0  0
  127.7850  116.4140  132.1260 C   0  0  0  0  0  0  0  0  0  0  0  0
  126.7900  115.3060  132.4880 C   0  0  0  0  0  0  0  0  0  0  0  0
  127.4140  113.9300  132.3360 C   0  0  0  0  0  0  0  0  0  0  0  0
  128.8910  113.8640  132.6870 C   0  0  0  0  0  0  0  0  0  0  0  0
  129.2960  115.0320  133.5910 C   0  0  0  0  0  0  0  0  0  0  0  0
  126.9200  113.0270  131.2230 C   0  0  0  0  0  0  0  0  0  0  0  0
  126.5420  112.7290  132.6420 C   0  0  0  0  0  0  0  0  0  0  0  0
  130.0870  118.5430  133.3120 C   0  0  0  0  0  0  0  0  0  0  0  0
  132.8210  117.1760  130.0470 C   0  0  0  0  0  0  0  0  0  0  0  0
  135.7282  117.0226  129.7596 H   0  0  0  0  0  0  0  0  0  0  0  0
  135.4981  115.9731  128.3201 H   0  0  0  0  0  0  0  0  0  0  0  0
  134.8565  117.6509  128.3201 H   0  0  0  0  0  0  0  0  0  0  0  0
  134.1294  114.1892  129.0182 H   0  0  0  0  0  0  0  0  0  0  0  0
  131.9550  113.3944  129.9397 H   0  0  0  0  0  0  0  0  0  0  0  0
  130.3487  115.0162  130.9237 H   0  0  0  0  0  0  0  0  0  0  0  0
  129.7440  117.6600  130.6360 H   0  0  0  0  0  0  0  0  0  0  0  0
  132.0914  121.6445  132.3621 H   0  0  0  0  0  0  0  0  0  0  0  0
  129.8190  120.4958  136.0944 H   0  0  0  0  0  0  0  0  0  0  0  0
  128.1060  119.5280  137.5100 H   0  0  0  0  0  0  0  0  0  0  0  0
  128.0894  117.0866  140.4743 H   0  0  0  0  0  0  0  0  0  0  0  0
  127.0388  118.1911  139.5167 H   0  0  0  0  0  0  0  0  0  0  0  0
  127.6368  115.2616  138.8816 H   0  0  0  0  0  0  0  0  0  0  0  0
  126.1034  115.9100  139.5477 H   0  0  0  0  0  0  0  0  0  0  0  0
  125.6940  116.9360  137.6730 H   0  0  0  0  0  0  0  0  0  0  0  0
  128.1352  116.5983  135.4045 H   0  0  0  0  0  0  0  0  0  0  0  0
  127.3173  117.3880  132.3323 H   0  0  0  0  0  0  0  0  0  0  0  0
  128.0356  116.3003  131.0610 H   0  0  0  0  0  0  0  0  0  0  0  0
  126.4690  115.4401  133.5315 H   0  0  0  0  0  0  0  0  0  0  0  0
  125.9315  115.3744  131.8037 H   0  0  0  0  0  0  0  0  0  0  0  0
  129.0940  112.9178  133.2100 H   0  0  0  0  0  0  0  0  0  0  0  0
  129.4742  113.9243  131.7562 H   0  0  0  0  0  0  0  0  0  0  0  0
  128.7022  114.9987  134.5163 H   0  0  0  0  0  0  0  0  0  0  0  0
  130.3665  114.9479  133.8298 H   0  0  0  0  0  0  0  0  0  0  0  0
  126.1592  113.3915  130.5172 H   0  0  0  0  0  0  0  0  0  0  0  0
  127.4016  112.4596  130.4130 H   0  0  0  0  0  0  0  0  0  0  0  0
  125.5041  112.8750  132.9758 H   0  0  0  0  0  0  0  0  0  0  0  0
  126.6323  111.8528  133.3009 H   0  0  0  0  0  0  0  0  0  0  0  0
  133.0728  118.2465  130.0703 H   0  0  0  0  0  0  0  0  0  0  0  0
  1  2  1  0
  2  3  2  0
  3  4  1  0
  4  5  2  0
  5  6  1  0
  6  7  1  0
  7  8  1  0
  8  9  2  0
  9 10  1  0
 10 11  2  0
 11 12  1  0
 12 13  2  0
 13 14  1  0
 14 15  1  0
 15 16  1  0
 16 17  2  0
 16 18  2  0
 16 19  1  0
 19 20  1  0
 20 21  1  0
 14 22  2  0
 22 23  1  0
 23 24  1  0
 24 25  1  0
 25 26  1  0
 26 27  1  0
 27 28  1  0
 28 29  1  0
 27 30  1  0
 30 31  1  0
 23 32  2  0
  6 33  2  0
 33  2  1  0
 32  8  1  0
 32 12  1  0
 29 24  1  0
 31 27  1  0
  1 34  1  0
  1 35  1  0
  1 36  1  0
  3 37  1  0
  4 38  1  0
  5 39  1  0
  7 40  1  0
 10 41  1  0
 13 42  1  0
 15 43  1  0
 19 44  1  0
 19 45  1  0
 20 46  1  0
 20 47  1  0
 21 48  1  0
 22 49  1  0
 25 50  1  0
 25 51  1  0
 26 52  1  0
 26 53  1  0
 28 54  1  0
 28 55  1  0
 29 56  1  0
 29 57  1  0
 30 58  1  0
 30 59  1  0
 31 60  1  0
 31 61  1  0
 33 62  1  0
M  END
$$$$

     RDKit          3D

 62 66  0  0  0  0  0  0  0  0999 V2000
  131.9400  122.2610  134.9490 C   0  0  0  0  0  0  0  0  0  0  0  0
  130.9900  121.2310  134.4130 C   0  0  0  0  0  0  0  0  0  0  0  0
  129.8530  120.8680  135.1370 C   0  0  0  0  0  0  0  0  0  0  0  0
  128.9930  119.8930  134.6390 C   0  0  0  0  0  0  0  0  0  0  0  0
  129.2760  119.2680  133.4210 C   0  0  0  0  0  0  0  0  0  0  0  0
  130.4260  119.5910  132.6830 C   0  0  0  0  0  0  0  0  0  0  0  0
  130.6440  118.9320  131.4650 N   0  0  0  0  0  0  0  0  0  0  0  0
  131.8070  118.6030  130.7290 C   0  0  0  0  0  0  0  0  0  0  0  0
  132.6280  119.5900  130.3200 N   0  0  0  0  0  0  0  0  0  0  0  0
  133.6930  119.2360  129.6040 C   0  0  0  0  0  0  0  0  0  0  0  0
  134.0210  117.9930  129.2430 N   0  0  0  0  0  0  0  0  0  0  0  0
  133.2060  117.0180  129.6470 C   0  0  0  0  0  0  0  0  0  0  0  0
  133.5520  115.7270  129.2780 C   0  0  0  0  0  0  0  0  0  0  0  0
  132.7720  114.6350  129.6340 C   0  0  0  0  0  0  0  0  0  0  0  0
  133.1920  113.3210  129.2680 N   0  0  0  0  0  0  0  0  0  0  0  0
  134.6750  112.7880  129.8940 S   0  0  0  0  0  6  0  0  0  0  0  0
  134.4120  111.4560  130.3970 O   0  0  0  0  0  0  0  0  0  0  0  0
  135.2420  113.8080  130.7490 O   0  0  0  0  0  0  0  0  0  0  0  0
  135.6530  112.6370  128.4160 C   0  0  0  0  0  0  0  0  0  0  0  0
  137.1250  112.6130  128.7690 C   0  0  0  0  0  0  0  0  0  0  0  0
  137.2750  112.1440  130.1060 O   0  0  0  0  0  0  0  0  0  0  0  0
  131.6320  114.8130  130.4030 C   0  0  0  0  0  0  0  0  0  0  0  0
  131.2530  116.1020  130.8120 C   0  0  0  0  0  0  0  0  0  0  0  0
  130.0980  116.2840  131.6260 N   0  0  0  0  0  0  0  0  0  0  0  0
  130.1680  115.5930  132.9410 C   0  0  0  0  0  0  0  0  0  0  0  0
  129.1070  114.4990  133.0920 C   0  0  0  0  0  0  0  0  0  0  0  0
  127.7110  115.0440  132.8440 C   0  0  0  0  0  0  0  0  0  0  0  0
  127.6360  116.1300  131.7840 C   0  0  0  0  0  0  0  0  0  0  0  0
  128.8500  116.0750  130.8510 C   0  0  0  0  0  0  0  0  0  0  0  0
  126.7500  115.1420  134.0130 C   0  0  0  0  0  0  0  0  0  0  0  0
  126.5490  114.0790  132.9760 C   0  0  0  0  0  0  0  0  0  0  0  0
  132.0470  117.2370  130.4140 C   0  0  0  0  0  0  0  0  0  0  0  0
  131.2690  120.5810  133.1970 C   0  0  0  0  0  0  0  0  0  0  0  0
  131.9210  122.2404  136.0486 H   0  0  0  0  0  0  0  0  0  0  0  0
  132.9580  122.0400  134.5957 H   0  0  0  0  0  0  0  0  0  0  0  0
  131.6376  123.2579  134.5957 H   0  0  0  0  0  0  0  0  0  0  0  0
  129.6366  121.3522  136.1007 H   0  0  0  0  0  0  0  0  0  0  0  0
  128.0911  119.6145  135.2038 H   0  0  0  0  0  0  0  0  0  0  0  0
  128.5831  118.5071  133.0326 H   0  0  0  0  0  0  0  0  0  0  0  0
  129.8580  118.3710  131.1300 H   0  0  0  0  0  0  0  0  0  0  0  0
  134.3660  120.0433  129.2793 H   0  0  0  0  0  0  0  0  0  0  0  0
  134.4666  115.5641  128.6890 H   0  0  0  0  0  0  0  0  0  0  0  0
  132.4950  112.5850  129.4060 H   0  0  0  0  0  0  0  0  0  0  0  0
  135.3876  111.7040  127.8974 H   0  0  0  0  0  0  0  0  0  0  0  0
  135.4528  113.4979  127.7612 H   0  0  0  0  0  0  0  0  0  0  0  0
  137.6582  111.9408  128.0806 H   0  0  0  0  0  0  0  0  0  0  0  0
  137.5441  113.6263  128.6819 H   0  0  0  0  0  0  0  0  0  0  0  0
  136.3810  112.0490  130.4780 H   0  0  0  0  0  0  0  0  0  0  0  0
  131.0237  113.9436  130.6931 H   0  0  0  0  0  0  0  0  0  0  0  0
  131.1627  115.1351  133.0452 H   0  0  0  0  0  0  0  0  0  0  0  0
  129.9822  116.3455  133.7216 H   0  0  0  0  0  0  0  0  0  0  0  0
  129.3128  113.6981  132.3666 H   0  0  0  0  0  0  0  0  0  0  0  0
  129.1507  114.1135  134.1213 H   0  0  0  0  0  0  0  0  0  0  0  0
  126.7203  115.9903  131.1907 H   0  0  0  0  0  0  0  0  0  0  0  0
  127.6256  117.1085  132.2865 H   0  0  0  0  0  0  0  0  0  0  0  0
  128.8871  115.0915  130.3597 H   0  0  0  0  0  0  0  0  0  0  0  0
  128.7589  116.8680  130.0941 H   0  0  0  0  0  0  0  0  0  0  0  0
  127.0852  114.8664  135.0238 H   0  0  0  0  0  0  0  0  0  0  0  0
  126.1232  115.9404  134.4369 H   0  0  0  0  0  0  0  0  0  0  0  0
  126.7369  113.0247  133.2271 H   0  0  0  0  0  0  0  0  0  0  0  0
  125.7140  113.7771  132.3266 H   0  0  0  0  0  0  0  0  0  0  0  0
  132.1736  120.8587  132.6362 H   0  0  0  0  0  0  0  0  0  0  0  0
  1  2  1  0
  2  3  2  0
  3  4  1  0
  4  5  2  0
  5  6  1  0
  6  7  1  0
  7  8  1  0
  8  9  2  0
  9 10  1  0
 10 11  2  0
 11 12  1  0
 12 13  2  0
 13 14  1  0
 14 15  1  0
 15 16  1  0
 16 17  2  0
 16 18  2  0
 16 19  1  0
 19 20  1  0
 20 21  1  0
 14 22  2  0
 22 23  1  0
 23 24  1  0
 24 25  1  0
 25 26  1  0
 26 27  1  0
 27 28  1  0
 28 29  1  0
 27 30  1  0
 30 31  1  0
 23 32  2  0
  6 33  2  0
 33  2  1  0
 32  8  1  0
 32 12  1  0
 29 24  1  0
 31 27  1  0
  1 34  1  0
  1 35  1  0
  1 36  1  0
  3 37  1  0
  4 38  1  0
  5 39  1  0
  7 40  1  0
 10 41  1  0
 13 42  1  0
 15 43  1  0
 19 44  1  0
 19 45  1  0
 20 46  1  0
 20 47  1  0
 21 48  1  0
 22 49  1  0
 25 50  1  0
 25 51  1  0
 26 52  1  0
 26 53  1  0
 28 54  1  0
 28 55  1  0
 29 56  1  0
 29 57  1  0
 30 58  1  0
 30 59  1  0
 31 60  1  0
 31 61  1  0
 33 62  1  0
M  END
$$$$

     RDKit          3D

 62 66  0  0  0  0  0  0  0  0999 V2000
  130.1390  118.2020  137.2760 C   0  0  0  0  0  0  0  0  0  0  0  0
  129.7570  119.0390  136.0910 C   0  0  0  0  0  0  0  0  0  0  0  0
  128.9870  120.1920  136.2550 C   0  0  0  0  0  0  0  0  0  0  0  0
  128.6190  120.9460  135.1440 C   0  0  0  0  0  0  0  0  0  0  0  0
  129.0090  120.5410  133.8650 C   0  0  0  0  0  0  0  0  0  0  0  0
  129.7600  119.3720  133.6650 C   0  0  0  0  0  0  0  0  0  0  0  0
  130.1250  119.0300  132.3550 N   0  0  0  0  0  0  0  0  0  0  0  0
  131.3390  119.1050  131.6300 C   0  0  0  0  0  0  0  0  0  0  0  0
  132.0190  120.2670  131.6030 N   0  0  0  0  0  0  0  0  0  0  0  0
  133.1380  120.2990  130.8840 C   0  0  0  0  0  0  0  0  0  0  0  0
  133.6480  119.2890  130.1760 N   0  0  0  0  0  0  0  0  0  0  0  0
  132.9710  118.1390  130.2010 C   0  0  0  0  0  0  0  0  0  0  0  0
  133.5050  117.0890  129.4710 C   0  0  0  0  0  0  0  0  0  0  0  0
  132.8810  115.8490  129.4170 C   0  0  0  0  0  0  0  0  0  0  0  0
  133.4920  114.7850  128.6870 N   0  0  0  0  0  0  0  0  0  0  0  0
  134.5760  113.7960  129.5370 S   0  0  0  0  0  6  0  0  0  0  0  0
  133.7500  113.0380  130.4540 O   0  0  0  0  0  0  0  0  0  0  0  0
  135.6890  114.5860  130.0160 O   0  0  0  0  0  0  0  0  0  0  0  0
  135.1330  112.6940  128.2560 C   0  0  0  0  0  0  0  0  0  0  0  0
  134.0630  112.5500  127.1950 C   0  0  0  0  0  0  0  0  0  0  0  0
  132.8750  112.0450  127.7990 O   0  0  0  0  0  0  0  0  0  0  0  0
  131.7120  115.6260  130.1270 C   0  0  0  0  0  0  0  0  0  0  0  0
  131.1450  116.6580  130.8930 C   0  0  0  0  0  0  0  0  0  0  0  0
  129.9590  116.4210  131.6460 N   0  0  0  0  0  0  0  0  0  0  0  0
  130.1200  115.4150  132.7290 C   0  0  0  0  0  0  0  0  0  0  0  0
  129.2590  114.1670  132.5100 C   0  0  0  0  0  0  0  0  0  0  0  0
  127.7960  114.5290  132.3240 C   0  0  0  0  0  0  0  0  0  0  0  0
  127.5580  115.8390  131.5910 C   0  0  0  0  0  0  0  0  0  0  0  0
  128.7820  116.2380  130.7610 C   0  0  0  0  0  0  0  0  0  0  0  0
  126.8080  114.1460  133.4090 C   0  0  0  0  0  0  0  0  0  0  0  0
  126.8150  113.3930  132.1130 C   0  0  0  0  0  0  0  0  0  0  0  0
  131.7770  117.9520  130.9210 C   0  0  0  0  0  0  0  0  0  0  0  0
  130.1280  118.6360  134.7950 C   0  0  0  0  0  0  0  0  0  0  0  0
  129.8923  118.7427  138.2016 H   0  0  0  0  0  0  0  0  0  0  0  0
  129.5854  117.2519  137.2476 H   0  0  0  0  0  0  0  0  0  0  0  0
  131.2195  117.9977  137.2476 H   0  0  0  0  0  0  0  0  0  0  0  0
  128.6713  120.5045  137.2613 H   0  0  0  0  0  0  0  0  0  0  0  0
  128.0213  121.8604  135.2731 H   0  0  0  0  0  0  0  0  0  0  0  0
  128.7214  121.1512  132.9961 H   0  0  0  0  0  0  0  0  0  0  0  0
  129.4820  118.3960  131.8780 H   0  0  0  0  0  0  0  0  0  0  0  0
  133.6954  121.2472  130.8719 H   0  0  0  0  0  0  0  0  0  0  0  0
  134.4455  117.2411  128.9211 H   0  0  0  0  0  0  0  0  0  0  0  0
  132.8470  114.1900  128.1620 H   0  0  0  0  0  0  0  0  0  0  0  0
  136.0473  113.0999  127.7985 H   0  0  0  0  0  0  0  0  0  0  0  0
  135.3416  111.7070  128.6945 H   0  0  0  0  0  0  0  0  0  0  0  0
  133.8581  113.5314  126.7424 H   0  0  0  0  0  0  0  0  0  0  0  0
  134.4060  111.8563  126.4133 H   0  0  0  0  0  0  0  0  0  0  0  0
  133.0310  111.1050  127.9980 H   0  0  0  0  0  0  0  0  0  0  0  0
  131.2273  114.6392  130.0907 H   0  0  0  0  0  0  0  0  0  0  0  0
  131.1762  115.1106  132.7723 H   0  0  0  0  0  0  0  0  0  0  0  0
  129.7926  115.8836  133.6688 H   0  0  0  0  0  0  0  0  0  0  0  0
  129.6143  113.6401  131.6121 H   0  0  0  0  0  0  0  0  0  0  0  0
  129.3466  113.5255  133.3993 H   0  0  0  0  0  0  0  0  0  0  0  0
  126.6925  115.7240  130.9220 H   0  0  0  0  0  0  0  0  0  0  0  0
  127.3697  116.6263  132.3358 H   0  0  0  0  0  0  0  0  0  0  0  0
  128.9977  115.4475  130.0272 H   0  0  0  0  0  0  0  0  0  0  0  0
  128.5718  117.1839  130.2403 H   0  0  0  0  0  0  0  0  0  0  0  0
  127.1641  113.6591  134.3288 H   0  0  0  0  0  0  0  0  0  0  0  0
  126.0445  114.6856  133.9886 H   0  0  0  0  0  0  0  0  0  0  0  0
  127.1760  112.3543  132.0836 H   0  0  0  0  0  0  0  0  0  0  0  0
  126.0584  113.1532  131.3514 H   0  0  0  0  0  0  0  0  0  0  0  0
  130.7223  117.7191  134.6679 H   0  0  0  0  0  0  0  0  0  0  0  0
  1  2  1  0
  2  3  2  0
  3  4  1  0
  4  5  2  0
  5  6  1  0
  6  7  1  0
  7  8  1  0
  8  9  2  0
  9 10  1  0
 10 11  2  0
 11 12  1  0
 12 13  2  0
 13 14  1  0
 14 15  1  0
 15 16  1  0
 16 17  2  0
 16 18  2  0
 16 19  1  0
 19 20  1  0
 20 21  1  0
 14 22  2  0
 22 23  1  0
 23 24  1  0
 24 25  1  0
 25 26  1  0
 26 27  1  0
 27 28  1  0
 28 29  1  0
 27 30  1  0
 30 31  1  0
 23 32  2  0
  6 33  2  0
 33  2  1  0
 32  8  1  0
 32 12  1  0
 29 24  1  0
 31 27  1  0
  1 34  1  0
  1 35  1  0
  1 36  1  0
  3 37  1  0
  4 38  1  0
  5 39  1  0
  7 40  1  0
 10 41  1  0
 13 42  1  0
 15 43  1  0
 19 44  1  0
 19 45  1  0
 20 46  1  0
 20 47  1  0
 21 48  1  0
 22 49  1  0
 25 50  1  0
 25 51  1  0
 26 52  1  0
 26 53  1  0
 28 54  1  0
 28 55  1  0
 29 56  1  0
 29 57  1  0
 30 58  1  0
 30 59  1  0
 31 60  1  0
 31 61  1  0
 33 62  1  0
M  END
$$$$

