
     RDKit          3D

 77 82  0  0  0  0  0  0  0  0999 V2000
  131.2180  121.6180  135.3890 C   0  0  0  0  0  0  0  0  0  0  0  0
  130.5510  120.3650  134.9040 C   0  0  0  0  0  0  0  0  0  0  0  0
  130.7130  119.9420  133.5830 C   0  0  0  0  0  0  0  0  0  0  0  0
  130.1300  118.7570  133.1190 C   0  0  0  0  0  0  0  0  0  0  0  0
  130.3340  118.3900  131.7790 N   0  0  0  0  0  0  0  0  0  0  0  0
  131.4680  118.3500  130.9370 C   0  0  0  0  0  0  0  0  0  0  0  0
  132.1050  119.5020  130.6420 N   0  0  0  0  0  0  0  0  0  0  0  0
  133.1760  119.4210  129.8580 C   0  0  0  0  0  0  0  0  0  0  0  0
  133.6850  118.3030  129.3350 N   0  0  0  0  0  0  0  0  0  0  0  0
  133.0520  117.1660  129.6260 C   0  0  0  0  0  0  0  0  0  0  0  0
  133.5860  116.0090  129.0800 C   0  0  0  0  0  0  0  0  0  0  0  0
  133.0040  114.7670  129.2990 C   0  0  0  0  0  0  0  0  0  0  0  0
  133.6220  113.5980  128.7610 N   0  0  0  0  0  0  0  0  0  0  0  0
  134.9410  112.9640  129.6190 S   0  0  0  0  0  6  0  0  0  0  0  0
  135.4890  113.9770  130.4920 O   0  0  0  0  0  0  0  0  0  0  0  0
  134.4690  111.6990  130.1430 O   0  0  0  0  0  0  0  0  0  0  0  0
  136.0870  112.6140  128.3030 C   0  0  0  0  0  0  0  0  0  0  0  0
  137.4950  112.5250  128.8500 C   0  0  0  0  0  0  0  0  0  0  0  0
  137.4590  112.1240  130.2180 O   0  0  0  0  0  0  0  0  0  0  0  0
  131.8730  114.6580  130.0940 C   0  0  0  0  0  0  0  0  0  0  0  0
  131.3000  115.8030  130.6690 C   0  0  0  0  0  0  0  0  0  0  0  0
  130.1490  115.6990  131.5120 N   0  0  0  0  0  0  0  0  0  0  0  0
  128.8660  115.7890  130.7690 C   0  0  0  0  0  0  0  0  0  0  0  0
  127.7010  115.8340  131.7650 C   0  0  0  0  0  0  0  0  0  0  0  0
  127.7500  114.6430  132.7030 C   0  0  0  0  0  0  0  0  0  0  0  0
  129.0980  114.4640  133.3780 C   0  0  0  0  0  0  0  0  0  0  0  0
  130.2320  114.4650  132.3440 C   0  0  0  0  0  0  0  0  0  0  0  0
  126.9320  113.4140  132.3680 C   0  0  0  0  0  0  0  0  0  0  0  0
  126.5080  114.3100  133.4980 C   0  0  0  0  0  0  0  0  0  0  0  0
  131.9050  117.0930  130.4370 C   0  0  0  0  0  0  0  0  0  0  0  0
  129.3860  117.9970  134.0320 C   0  0  0  0  0  0  0  0  0  0  0  0
  129.2050  118.3700  135.3790 C   0  0  0  0  0  0  0  0  0  0  0  0
  128.4680  117.5880  136.2640 N   0  0  0  0  0  0  0  0  0  0  0  0
  127.4150  118.1910  137.0890 C   0  0  0  0  0  0  0  0  0  0  0  0
  126.3670  117.1450  137.4240 C   0  0  0  0  0  0  0  0  0  0  0  0
  127.0030  115.9940  138.1760 C   0  0  0  0  0  0  0  0  0  0  0  0
  126.8660  116.1990  139.5150 F   0  0  0  0  0  0  0  0  0  0  0  0
  126.2980  114.8600  137.9040 F   0  0  0  0  0  0  0  0  0  0  0  0
  128.4680  115.7540  137.8760 C   0  0  0  0  0  0  0  0  0  0  0  0
  128.7840  116.1690  136.4510 C   0  0  0  0  0  0  0  0  0  0  0  0
  129.8100  119.5680  135.7870 C   0  0  0  0  0  0  0  0  0  0  0  0
  131.2235  121.6283  136.4889 H   0  0  0  0  0  0  0  0  0  0  0  0
  132.2526  121.6502  135.0169 H   0  0  0  0  0  0  0  0  0  0  0  0
  130.6670  122.4943  135.0169 H   0  0  0  0  0  0  0  0  0  0  0  0
  131.3119  120.5534  132.8920 H   0  0  0  0  0  0  0  0  0  0  0  0
  129.4920  118.1470  131.2530 H   0  0  0  0  0  0  0  0  0  0  0  0
  133.6906  120.3631  129.6179 H   0  0  0  0  0  0  0  0  0  0  0  0
  134.4915  116.0761  128.4590 H   0  0  0  0  0  0  0  0  0  0  0  0
  132.9820  112.8330  128.5350 H   0  0  0  0  0  0  0  0  0  0  0  0
  135.8186  111.6570  127.8316 H   0  0  0  0  0  0  0  0  0  0  0  0
  136.0399  113.4234  127.5596 H   0  0  0  0  0  0  0  0  0  0  0  0
  138.0664  111.7867  128.2683 H   0  0  0  0  0  0  0  0  0  0  0  0
  137.9764  113.5111  128.7739 H   0  0  0  0  0  0  0  0  0  0  0  0
  137.1170  111.2140  130.2560 H   0  0  0  0  0  0  0  0  0  0  0  0
  131.4233  113.6705  130.2746 H   0  0  0  0  0  0  0  0  0  0  0  0
  128.8603  116.7026  130.1564 H   0  0  0  0  0  0  0  0  0  0  0  0
  128.7573  114.9098  130.1169 H   0  0  0  0  0  0  0  0  0  0  0  0
  127.7656  116.7605  132.3544 H   0  0  0  0  0  0  0  0  0  0  0  0
  126.7553  115.8032  131.2040 H   0  0  0  0  0  0  0  0  0  0  0  0
  129.2575  115.2886  134.0884 H   0  0  0  0  0  0  0  0  0  0  0  0
  129.1025  113.4979  133.9039 H   0  0  0  0  0  0  0  0  0  0  0  0
  131.2012  114.4383  132.8636 H   0  0  0  0  0  0  0  0  0  0  0  0
  130.1368  113.5808  131.6966 H   0  0  0  0  0  0  0  0  0  0  0  0
  126.3418  113.3827  131.4403 H   0  0  0  0  0  0  0  0  0  0  0  0
  127.1486  112.3403  132.2671 H   0  0  0  0  0  0  0  0  0  0  0  0
  125.6073  114.9333  133.3964 H   0  0  0  0  0  0  0  0  0  0  0  0
  126.2861  114.1614  134.5651 H   0  0  0  0  0  0  0  0  0  0  0  0
  128.9209  117.0643  133.6801 H   0  0  0  0  0  0  0  0  0  0  0  0
  127.8559  118.5782  138.0194 H   0  0  0  0  0  0  0  0  0  0  0  0
  126.9434  119.0150  136.5335 H   0  0  0  0  0  0  0  0  0  0  0  0
  125.5851  117.6005  138.0494 H   0  0  0  0  0  0  0  0  0  0  0  0
  125.9255  116.7655  136.4907 H   0  0  0  0  0  0  0  0  0  0  0  0
  129.0831  116.3439  138.5715 H   0  0  0  0  0  0  0  0  0  0  0  0
  128.6891  114.6832  137.9963 H   0  0  0  0  0  0  0  0  0  0  0  0
  129.8530  116.0038  136.2514 H   0  0  0  0  0  0  0  0  0  0  0  0
  128.1792  115.5682  135.7558 H   0  0  0  0  0  0  0  0  0  0  0  0
  129.6994  119.8919  136.8324 H   0  0  0  0  0  0  0  0  0  0  0  0
  1  2  1  0
  2  3  2  0
  3  4  1  0
  4  5  1  0
  5  6  1  0
  6  7  2  0
  7  8  1  0
  8  9  2  0
  9 10  1  0
 10 11  2  0
 11 12  1  0
 12 13  1  0
 13 14  1  0
 14 15  2  0
 14 16  2  0
 14 17  1  0
 17 18  1  0
 18 19  1  0
 12 20  2  0
 20 21  1  0
 21 22  1  0
 22 23  1  0
 23 24  1  0
 24 25  1  0
 25 26  1  0
 26 27  1  0
 25 28  1  0
 28 29  1  0
 21 30  2  0
  4 31  2  0
 31 32  1  0
 32 33  1  0
 33 34  1  0
 34 35  1  0
 35 36  1  0
 36 37  1  0
 36 38  1  0
 36 39  1  0
 39 40  1  0
 32 41  2  0
 41  2  1  0
 30  6  1  0
 40 33  1  0
 30 10  1  0
 27 22  1  0
 29 25  1  0
  1 42  1  0
  1 43  1  0
  1 44  1  0
  3 45  1  0
  5 46  1  0
  8 47  1  0
 11 48  1  0
 13 49  1  0
 17 50  1  0
 17 51  1  0
 18 52  1  0
 18 53  1  0
 19 54  1  0
 20 55  1  0
 23 56  1  0
 23 57  1  0
 24 58  1  0
 24 59  1  0
 26 60  1  0
 26 61  1  0
 27 62  1  0
 27 63  1  0
 28 64  1  0
 28 65  1  0
 29 66  1  0
 29 67  1  0
 31 68  1  0
 34 69  1  0
 34 70  1  0
 35 71  1  0
 35 72  1  0
 39 73  1  0
 39 74  1  0
 40 75  1  0
 40 76  1  0
 41 77  1  0
M  END
$$$$

     RDKit          3D

 77 82  0  0  0  0  0  0  0  0999 V2000
  131.3000  121.5250  135.5430 C   0  0  0  0  0  0  0  0  0  0  0  0
  130.6370  120.2790  135.0370 C   0  0  0  0  0  0  0  0  0  0  0  0
  130.8140  119.8690  133.7130 C   0  0  0  0  0  0  0  0  0  0  0  0
  130.2340  118.6900  133.2290 C   0  0  0  0  0  0  0  0  0  0  0  0
  130.4530  118.3370  131.8890 N   0  0  0  0  0  0  0  0  0  0  0  0
  131.5700  118.4140  131.0260 C   0  0  0  0  0  0  0  0  0  0  0  0
  132.2000  119.5970  130.8760 N   0  0  0  0  0  0  0  0  0  0  0  0
  133.2560  119.6250  130.0660 C   0  0  0  0  0  0  0  0  0  0  0  0
  133.7530  118.5890  129.3870 N   0  0  0  0  0  0  0  0  0  0  0  0
  133.1260  117.4210  129.5350 C   0  0  0  0  0  0  0  0  0  0  0  0
  133.6480  116.3510  128.8280 C   0  0  0  0  0  0  0  0  0  0  0  0
  133.0700  115.0890  128.8880 C   0  0  0  0  0  0  0  0  0  0  0  0
  133.6770  114.0040  128.1850 N   0  0  0  0  0  0  0  0  0  0  0  0
  134.5370  112.8750  129.1130 S   0  0  0  0  0  6  0  0  0  0  0  0
  133.6200  112.1110  129.9280 O   0  0  0  0  0  0  0  0  0  0  0  0
  135.4260  112.2220  128.1740 O   0  0  0  0  0  0  0  0  0  0  0  0
  135.5230  113.9390  130.1460 C   0  0  0  0  0  0  0  0  0  0  0  0
  136.3020  113.1140  131.1460 C   0  0  0  0  0  0  0  0  0  0  0  0
  137.3250  112.3790  130.4780 O   0  0  0  0  0  0  0  0  0  0  0  0
  131.9560  114.8700  129.6840 C   0  0  0  0  0  0  0  0  0  0  0  0
  131.3960  115.9260  130.4210 C   0  0  0  0  0  0  0  0  0  0  0  0
  130.2620  115.7060  131.2640 N   0  0  0  0  0  0  0  0  0  0  0  0
  128.9670  115.7770  130.5410 C   0  0  0  0  0  0  0  0  0  0  0  0
  127.8130  115.6960  131.5480 C   0  0  0  0  0  0  0  0  0  0  0  0
  127.9360  114.4500  132.4040 C   0  0  0  0  0  0  0  0  0  0  0  0
  129.3000  114.2980  133.0540 C   0  0  0  0  0  0  0  0  0  0  0  0
  130.4190  114.4270  132.0120 C   0  0  0  0  0  0  0  0  0  0  0  0
  127.1790  113.2050  131.9960 C   0  0  0  0  0  0  0  0  0  0  0  0
  126.7220  114.0000  133.1870 C   0  0  0  0  0  0  0  0  0  0  0  0
  131.9960  117.2370  130.3520 C   0  0  0  0  0  0  0  0  0  0  0  0
  129.4780  117.9230  134.1260 C   0  0  0  0  0  0  0  0  0  0  0  0
  129.2820  118.2820  135.4750 C   0  0  0  0  0  0  0  0  0  0  0  0
  128.5330  117.4920  136.3430 N   0  0  0  0  0  0  0  0  0  0  0  0
  128.7320  116.0390  136.3840 C   0  0  0  0  0  0  0  0  0  0  0  0
  128.3620  115.5120  137.7590 C   0  0  0  0  0  0  0  0  0  0  0  0
  126.9150  115.8350  138.0680 C   0  0  0  0  0  0  0  0  0  0  0  0
  126.1340  114.7740  137.7260 F   0  0  0  0  0  0  0  0  0  0  0  0
  126.7820  115.9690  139.4170 F   0  0  0  0  0  0  0  0  0  0  0  0
  126.3670  117.0720  137.3880 C   0  0  0  0  0  0  0  0  0  0  0  0
  127.4770  118.0830  137.1700 C   0  0  0  0  0  0  0  0  0  0  0  0
  129.8840  119.4750  135.9030 C   0  0  0  0  0  0  0  0  0  0  0  0
  131.2977  121.5207  136.6430 H   0  0  0  0  0  0  0  0  0  0  0  0
  132.3372  121.5623  135.1786 H   0  0  0  0  0  0  0  0  0  0  0  0
  130.7515  122.4061  135.1786 H   0  0  0  0  0  0  0  0  0  0  0  0
  131.4226  120.4862  133.0358 H   0  0  0  0  0  0  0  0  0  0  0  0
  129.6330  118.0000  131.3790 H   0  0  0  0  0  0  0  0  0  0  0  0
  133.7664  120.5919  129.9450 H   0  0  0  0  0  0  0  0  0  0  0  0
  134.5411  116.5037  128.2043 H   0  0  0  0  0  0  0  0  0  0  0  0
  133.0570  113.4980  127.5490 H   0  0  0  0  0  0  0  0  0  0  0  0
  136.2246  114.5078  129.5181 H   0  0  0  0  0  0  0  0  0  0  0  0
  134.8607  114.6307  130.6872 H   0  0  0  0  0  0  0  0  0  0  0  0
  136.7598  113.7812  131.8912 H   0  0  0  0  0  0  0  0  0  0  0  0
  135.6189  112.4111  131.6454 H   0  0  0  0  0  0  0  0  0  0  0  0
  137.8620  113.0090  129.9670 H   0  0  0  0  0  0  0  0  0  0  0  0
  131.5096  113.8661  129.7383 H   0  0  0  0  0  0  0  0  0  0  0  0
  128.9065  116.7271  129.9899 H   0  0  0  0  0  0  0  0  0  0  0  0
  128.8957  114.9373  129.8340 H   0  0  0  0  0  0  0  0  0  0  0  0
  127.8368  116.5839  132.1969 H   0  0  0  0  0  0  0  0  0  0  0  0
  126.8630  115.6533  130.9951 H   0  0  0  0  0  0  0  0  0  0  0  0
  129.4253  115.0811  133.8162 H   0  0  0  0  0  0  0  0  0  0  0  0
  129.3613  113.3010  133.5148 H   0  0  0  0  0  0  0  0  0  0  0  0
  131.3947  114.4176  132.5198 H   0  0  0  0  0  0  0  0  0  0  0  0
  130.3613  113.5834  131.3084 H   0  0  0  0  0  0  0  0  0  0  0  0
  126.5799  113.2039  131.0735 H   0  0  0  0  0  0  0  0  0  0  0  0
  127.4503  112.1533  131.8221 H   0  0  0  0  0  0  0  0  0  0  0  0
  125.7888  114.5800  133.1351 H   0  0  0  0  0  0  0  0  0  0  0  0
  126.5211  113.7697  134.2437 H   0  0  0  0  0  0  0  0  0  0  0  0
  129.0148  116.9951  133.7592 H   0  0  0  0  0  0  0  0  0  0  0  0
  128.0950  115.5609  135.6253 H   0  0  0  0  0  0  0  0  0  0  0  0
  129.7876  115.8092  136.1770 H   0  0  0  0  0  0  0  0  0  0  0  0
  128.5041  114.4214  137.7810 H   0  0  0  0  0  0  0  0  0  0  0  0
  129.0062  115.9886  138.5126 H   0  0  0  0  0  0  0  0  0  0  0  0
  125.9346  116.7914  136.4162 H   0  0  0  0  0  0  0  0  0  0  0  0
  125.5923  117.5206  138.0273 H   0  0  0  0  0  0  0  0  0  0  0  0
  127.0688  118.9693  136.6622 H   0  0  0  0  0  0  0  0  0  0  0  0
  127.8987  118.3741  138.1433 H   0  0  0  0  0  0  0  0  0  0  0  0
  129.7611  119.7886  136.9502 H   0  0  0  0  0  0  0  0  0  0  0  0
  1  2  1  0
  2  3  2  0
  3  4  1  0
  4  5  1  0
  5  6  1  0
  6  7  2  0
  7  8  1  0
  8  9  2  0
  9 10  1  0
 10 11  2  0
 11 12  1  0
 12 13  1  0
 13 14  1  0
 14 15  2  0
 14 16  2  0
 14 17  1  0
 17 18  1  0
 18 19  1  0
 12 20  2  0
 20 21  1  0
 21 22  1  0
 22 23  1  0
 23 24  1  0
 24 25  1  0
 25 26  1  0
 26 27  1  0
 25 28  1  0
 28 29  1  0
 21 30  2  0
  4 31  2  0
 31 32  1  0
 32 33  1  0
 33 34  1  0
 34 35  1  0
 35 36  1  0
 36 37  1  0
 36 38  1  0
 36 39  1  0
 39 40  1  0
 32 41  2  0
 41  2  1  0
 30  6  1  0
 40 33  1  0
 30 10  1  0
 27 22  1  0
 29 25  1  0
  1 42  1  0
  1 43  1  0
  1 44  1  0
  3 45  1  0
  5 46  1  0
  8 47  1  0
 11 48  1  0
 13 49  1  0
 17 50  1  0
 17 51  1  0
 18 52  1  0
 18 53  1  0
 19 54  1  0
 20 55  1  0
 23 56  1  0
 23 57  1  0
 24 58  1  0
 24 59  1  0
 26 60  1  0
 26 61  1  0
 27 62  1  0
 27 63  1  0
 28 64  1  0
 28 65  1  0
 29 66  1  0
 29 67  1  0
 31 68  1  0
 34 69  1  0
 34 70  1  0
 35 71  1  0
 35 72  1  0
 39 73  1  0
 39 74  1  0
 40 75  1  0
 40 76  1  0
 41 77  1  0
M  END
$$$$

     RDKit          3D

 77 82  0  0  0  0  0  0  0  0999 V2000
  131.3940  121.8750  135.2680 C   0  0  0  0  0  0  0  0  0  0  0  0
  130.7290  120.5950  134.8590 C   0  0  0  0  0  0  0  0  0  0  0  0
  130.8500  120.1200  133.5510 C   0  0  0  0  0  0  0  0  0  0  0  0
  130.2680  118.9100  133.1560 C   0  0  0  0  0  0  0  0  0  0  0  0
  130.4290  118.4910  131.8260 N   0  0  0  0  0  0  0  0  0  0  0  0
  131.5540  118.2490  131.0050 C   0  0  0  0  0  0  0  0  0  0  0  0
  132.3110  119.2940  130.6090 N   0  0  0  0  0  0  0  0  0  0  0  0
  133.3690  119.0230  129.8490 C   0  0  0  0  0  0  0  0  0  0  0  0
  133.7560  117.8130  129.4420 N   0  0  0  0  0  0  0  0  0  0  0  0
  133.0050  116.7820  129.8330 C   0  0  0  0  0  0  0  0  0  0  0  0
  133.4130  115.5280  129.4080 C   0  0  0  0  0  0  0  0  0  0  0  0
  132.7010  114.3820  129.7380 C   0  0  0  0  0  0  0  0  0  0  0  0
  133.1920  113.1070  129.3220 N   0  0  0  0  0  0  0  0  0  0  0  0
  133.4550  112.8910  127.6600 S   0  0  0  0  0  6  0  0  0  0  0  0
  132.7180  111.7380  127.1950 O   0  0  0  0  0  0  0  0  0  0  0  0
  133.2440  114.2000  127.0780 O   0  0  0  0  0  0  0  0  0  0  0  0
  135.2020  112.5510  127.6170 C   0  0  0  0  0  0  0  0  0  0  0  0
  135.7680  112.5650  129.0200 C   0  0  0  0  0  0  0  0  0  0  0  0
  136.2520  113.8690  129.3350 O   0  0  0  0  0  0  0  0  0  0  0  0
  131.5630  114.4710  130.5260 C   0  0  0  0  0  0  0  0  0  0  0  0
  131.1160  115.7210  130.9820 C   0  0  0  0  0  0  0  0  0  0  0  0
  129.9580  115.8210  131.8160 N   0  0  0  0  0  0  0  0  0  0  0  0
  128.6880  115.9200  131.0530 C   0  0  0  0  0  0  0  0  0  0  0  0
  127.5290  116.1900  132.0200 C   0  0  0  0  0  0  0  0  0  0  0  0
  127.4780  115.1300  133.1030 C   0  0  0  0  0  0  0  0  0  0  0  0
  128.8050  114.9290  133.8120 C   0  0  0  0  0  0  0  0  0  0  0  0
  129.9370  114.7030  132.8010 C   0  0  0  0  0  0  0  0  0  0  0  0
  126.5610  113.9400  132.9190 C   0  0  0  0  0  0  0  0  0  0  0  0
  126.2110  115.0060  133.9200 C   0  0  0  0  0  0  0  0  0  0  0  0
  131.8550  116.9100  130.6330 C   0  0  0  0  0  0  0  0  0  0  0  0
  129.5680  118.1780  134.1260 C   0  0  0  0  0  0  0  0  0  0  0  0
  129.4300  118.6030  135.4620 C   0  0  0  0  0  0  0  0  0  0  0  0
  128.7370  117.8490  136.4050 N   0  0  0  0  0  0  0  0  0  0  0  0
  129.1430  116.4690  136.6970 C   0  0  0  0  0  0  0  0  0  0  0  0
  128.7430  116.1090  138.1160 C   0  0  0  0  0  0  0  0  0  0  0  0
  127.2440  116.2420  138.2840 C   0  0  0  0  0  0  0  0  0  0  0  0
  126.6570  115.0310  138.0770 F   0  0  0  0  0  0  0  0  0  0  0  0
  126.9810  116.5590  139.5820 F   0  0  0  0  0  0  0  0  0  0  0  0
  126.5770  117.2570  137.3780 C   0  0  0  0  0  0  0  0  0  0  0  0
  127.5410  118.3850  137.0610 C   0  0  0  0  0  0  0  0  0  0  0  0
  130.0320  119.8250  135.8000 C   0  0  0  0  0  0  0  0  0  0  0  0
  131.4262  121.9370  136.3658 H   0  0  0  0  0  0  0  0  0  0  0  0
  132.4188  121.8995  134.8692 H   0  0  0  0  0  0  0  0  0  0  0  0
  130.8248  122.7276  134.8692 H   0  0  0  0  0  0  0  0  0  0  0  0
  131.4154  120.7102  132.8148 H   0  0  0  0  0  0  0  0  0  0  0  0
  129.5670  118.3820  131.2880 H   0  0  0  0  0  0  0  0  0  0  0  0
  133.9823  119.8771  129.5259 H   0  0  0  0  0  0  0  0  0  0  0  0
  134.3219  115.4379  128.7950 H   0  0  0  0  0  0  0  0  0  0  0  0
  134.0150  112.7730  129.8280 H   0  0  0  0  0  0  0  0  0  0  0  0
  135.3693  111.5614  127.1669 H   0  0  0  0  0  0  0  0  0  0  0  0
  135.7050  113.3241  127.0176 H   0  0  0  0  0  0  0  0  0  0  0  0
  134.9793  112.2863  129.7343 H   0  0  0  0  0  0  0  0  0  0  0  0
  136.5978  111.8456  129.0830 H   0  0  0  0  0  0  0  0  0  0  0  0
  136.8400  114.1530  128.6140 H   0  0  0  0  0  0  0  0  0  0  0  0
  131.0092  113.5593  130.7944 H   0  0  0  0  0  0  0  0  0  0  0  0
  128.7596  116.7439  130.3277 H   0  0  0  0  0  0  0  0  0  0  0  0
  128.5070  114.9754  130.5192 H   0  0  0  0  0  0  0  0  0  0  0  0
  127.6698  117.1763  132.4862 H   0  0  0  0  0  0  0  0  0  0  0  0
  126.5847  116.1661  131.4564 H   0  0  0  0  0  0  0  0  0  0  0  0
  129.0314  115.8223  134.4125 H   0  0  0  0  0  0  0  0  0  0  0  0
  128.7278  114.0417  134.4575 H   0  0  0  0  0  0  0  0  0  0  0  0
  130.8997  114.6646  133.3318 H   0  0  0  0  0  0  0  0  0  0  0  0
  129.7701  113.7531  132.2720 H   0  0  0  0  0  0  0  0  0  0  0  0
  125.9714  113.8381  131.9959 H   0  0  0  0  0  0  0  0  0  0  0  0
  126.6878  112.8481  132.9594 H   0  0  0  0  0  0  0  0  0  0  0  0
  125.3654  115.6830  133.7285 H   0  0  0  0  0  0  0  0  0  0  0  0
  125.9761  115.0150  134.9946 H   0  0  0  0  0  0  0  0  0  0  0  0
  129.1042  117.2257  133.8292 H   0  0  0  0  0  0  0  0  0  0  0  0
  128.6474  115.7849  135.9924 H   0  0  0  0  0  0  0  0  0  0  0  0
  130.2343  116.3797  136.5918 H   0  0  0  0  0  0  0  0  0  0  0  0
  129.0420  115.0715  138.3261 H   0  0  0  0  0  0  0  0  0  0  0  0
  129.2457  116.7926  138.8160 H   0  0  0  0  0  0  0  0  0  0  0  0
  126.2722  116.7650  136.4425 H   0  0  0  0  0  0  0  0  0  0  0  0
  125.6943  117.6701  137.8881 H   0  0  0  0  0  0  0  0  0  0  0  0
  127.0503  119.1069  136.3916 H   0  0  0  0  0  0  0  0  0  0  0  0
  127.8339  118.8848  137.9961 H   0  0  0  0  0  0  0  0  0  0  0  0
  129.9544  120.1895  136.8350 H   0  0  0  0  0  0  0  0  0  0  0  0
  1  2  1  0
  2  3  2  0
  3  4  1  0
  4  5  1  0
  5  6  1  0
  6  7  2  0
  7  8  1  0
  8  9  2  0
  9 10  1  0
 10 11  2  0
 11 12  1  0
 12 13  1  0
 13 14  1  0
 14 15  2  0
 14 16  2  0
 14 17  1  0
 17 18  1  0
 18 19  1  0
 12 20  2  0
 20 21  1  0
 21 22  1  0
 22 23  1  0
 23 24  1  0
 24 25  1  0
 25 26  1  0
 26 27  1  0
 25 28  1  0
 28 29  1  0
 21 30  2  0
  4 31  2  0
 31 32  1  0
 32 33  1  0
 33 34  1  0
 34 35  1  0
 35 36  1  0
 36 37  1  0
 36 38  1  0
 36 39  1  0
 39 40  1  0
 32 41  2  0
 41  2  1  0
 30  6  1  0
 40 33  1  0
 30 10  1  0
 27 22  1  0
 29 25  1  0
  1 42  1  0
  1 43  1  0
  1 44  1  0
  3 45  1  0
  5 46  1  0
  8 47  1  0
 11 48  1  0
 13 49  1  0
 17 50  1  0
 17 51  1  0
 18 52  1  0
 18 53  1  0
 19 54  1  0
 20 55  1  0
 23 56  1  0
 23 57  1  0
 24 58  1  0
 24 59  1  0
 26 60  1  0
 26 61  1  0
 27 62  1  0
 27 63  1  0
 28 64  1  0
 28 65  1  0
 29 66  1  0
 29 67  1  0
 31 68  1  0
 34 69  1  0
 34 70  1  0
 35 71  1  0
 35 72  1  0
 39 73  1  0
 39 74  1  0
 40 75  1  0
 40 76  1  0
 41 77  1  0
M  END
$$$$

     RDKit          3D

 77 82  0  0  0  0  0  0  0  0999 V2000
  131.4050  121.9820  135.0310 C   0  0  0  0  0  0  0  0  0  0  0  0
  130.7530  120.6750  134.6890 C   0  0  0  0  0  0  0  0  0  0  0  0
  130.8550  120.1480  133.4000 C   0  0  0  0  0  0  0  0  0  0  0  0
  130.2850  118.9130  133.0680 C   0  0  0  0  0  0  0  0  0  0  0  0
  130.4260  118.4420  131.7530 N   0  0  0  0  0  0  0  0  0  0  0  0
  131.5380  118.1660  130.9260 C   0  0  0  0  0  0  0  0  0  0  0  0
  132.2790  119.1940  130.4610 N   0  0  0  0  0  0  0  0  0  0  0  0
  133.3250  118.8920  129.6970 C   0  0  0  0  0  0  0  0  0  0  0  0
  133.7150  117.6640  129.3470 N   0  0  0  0  0  0  0  0  0  0  0  0
  132.9800  116.6500  129.8050 C   0  0  0  0  0  0  0  0  0  0  0  0
  133.3900  115.3790  129.4390 C   0  0  0  0  0  0  0  0  0  0  0  0
  132.6940  114.2460  129.8410 C   0  0  0  0  0  0  0  0  0  0  0  0
  133.1880  112.9550  129.4840 N   0  0  0  0  0  0  0  0  0  0  0  0
  134.8320  112.8480  129.0790 S   0  0  0  0  0  6  0  0  0  0  0  0
  135.4780  114.1180  129.3180 O   0  0  0  0  0  0  0  0  0  0  0  0
  135.2950  111.6380  129.7260 O   0  0  0  0  0  0  0  0  0  0  0  0
  134.7480  112.5310  127.3290 C   0  0  0  0  0  0  0  0  0  0  0  0
  133.3630  112.8510  126.8090 C   0  0  0  0  0  0  0  0  0  0  0  0
  132.4950  111.7410  127.0260 O   0  0  0  0  0  0  0  0  0  0  0  0
  131.5700  114.3680  130.6440 C   0  0  0  0  0  0  0  0  0  0  0  0
  131.1200  115.6370  131.0420 C   0  0  0  0  0  0  0  0  0  0  0  0
  129.9770  115.7720  131.8920 N   0  0  0  0  0  0  0  0  0  0  0  0
  128.7030  115.9230  131.1440 C   0  0  0  0  0  0  0  0  0  0  0  0
  127.5660  116.2260  132.1270 C   0  0  0  0  0  0  0  0  0  0  0  0
  127.4890  115.1600  133.2040 C   0  0  0  0  0  0  0  0  0  0  0  0
  128.8170  114.9060  133.8950 C   0  0  0  0  0  0  0  0  0  0  0  0
  129.9280  114.6480  132.8680 C   0  0  0  0  0  0  0  0  0  0  0  0
  126.5280  114.0050  133.0220 C   0  0  0  0  0  0  0  0  0  0  0  0
  126.2280  115.0750  134.0340 C   0  0  0  0  0  0  0  0  0  0  0  0
  131.8430  116.8120  130.6190 C   0  0  0  0  0  0  0  0  0  0  0  0
  129.6190  118.2110  134.0820 C   0  0  0  0  0  0  0  0  0  0  0  0
  129.5020  118.6900  135.4020 C   0  0  0  0  0  0  0  0  0  0  0  0
  128.8410  117.9640  136.3900 N   0  0  0  0  0  0  0  0  0  0  0  0
  129.2490  116.5890  136.7000 C   0  0  0  0  0  0  0  0  0  0  0  0
  128.9040  116.2670  138.1430 C   0  0  0  0  0  0  0  0  0  0  0  0
  127.4130  116.4160  138.3660 C   0  0  0  0  0  0  0  0  0  0  0  0
  126.8120  115.2040  138.2130 F   0  0  0  0  0  0  0  0  0  0  0  0
  127.2050  116.7670  139.6650 F   0  0  0  0  0  0  0  0  0  0  0  0
  126.7180  117.4130  137.4620 C   0  0  0  0  0  0  0  0  0  0  0  0
  127.6760  118.5260  137.0790 C   0  0  0  0  0  0  0  0  0  0  0  0
  130.0890  119.9340  135.6760 C   0  0  0  0  0  0  0  0  0  0  0  0
  131.4588  122.0899  136.1244 H   0  0  0  0  0  0  0  0  0  0  0  0
  132.4208  122.0063  134.6097 H   0  0  0  0  0  0  0  0  0  0  0  0
  130.8134  122.8082  134.6097 H   0  0  0  0  0  0  0  0  0  0  0  0
  131.3952  120.7158  132.6281 H   0  0  0  0  0  0  0  0  0  0  0  0
  129.5560  118.3130  131.2330 H   0  0  0  0  0  0  0  0  0  0  0  0
  133.9249  119.7326  129.3181 H   0  0  0  0  0  0  0  0  0  0  0  0
  134.2885  115.2637  128.8149 H   0  0  0  0  0  0  0  0  0  0  0  0
  132.9660  112.2070  130.1450 H   0  0  0  0  0  0  0  0  0  0  0  0
  135.4861  113.1597  126.8094 H   0  0  0  0  0  0  0  0  0  0  0  0
  134.9656  111.4687  127.1444 H   0  0  0  0  0  0  0  0  0  0  0  0
  132.9690  113.7311  127.3383 H   0  0  0  0  0  0  0  0  0  0  0  0
  133.4204  113.0606  125.7307 H   0  0  0  0  0  0  0  0  0  0  0  0
  132.2830  111.3520  126.1590 H   0  0  0  0  0  0  0  0  0  0  0  0
  131.0291  113.4674  130.9703 H   0  0  0  0  0  0  0  0  0  0  0  0
  128.7959  116.7500  130.4247 H   0  0  0  0  0  0  0  0  0  0  0  0
  128.4821  114.9905  130.6040 H   0  0  0  0  0  0  0  0  0  0  0  0
  127.7473  117.2031  132.5986 H   0  0  0  0  0  0  0  0  0  0  0  0
  126.6151  116.2392  131.5742 H   0  0  0  0  0  0  0  0  0  0  0  0
  129.0826  115.7858  134.4995 H   0  0  0  0  0  0  0  0  0  0  0  0
  128.7161  114.0168  134.5346 H   0  0  0  0  0  0  0  0  0  0  0  0
  130.8951  114.5709  133.3864 H   0  0  0  0  0  0  0  0  0  0  0  0
  129.7207  113.7091  132.3337 H   0  0  0  0  0  0  0  0  0  0  0  0
  125.9249  113.9312  132.1051 H   0  0  0  0  0  0  0  0  0  0  0  0
  126.6159  112.9090  133.0532 H   0  0  0  0  0  0  0  0  0  0  0  0
  125.4051  115.7832  133.8570 H   0  0  0  0  0  0  0  0  0  0  0  0
  126.0056  115.0842  135.1112 H   0  0  0  0  0  0  0  0  0  0  0  0
  129.1659  117.2394  133.8355 H   0  0  0  0  0  0  0  0  0  0  0  0
  128.7208  115.8915  136.0332 H   0  0  0  0  0  0  0  0  0  0  0  0
  130.3346  116.4888  136.5535 H   0  0  0  0  0  0  0  0  0  0  0  0
  129.2041  115.2327  138.3670 H   0  0  0  0  0  0  0  0  0  0  0  0
  129.4391  116.9631  138.8057 H   0  0  0  0  0  0  0  0  0  0  0  0
  126.3735  116.9003  136.5518 H   0  0  0  0  0  0  0  0  0  0  0  0
  125.8590  117.8453  137.9960 H   0  0  0  0  0  0  0  0  0  0  0  0
  127.1640  119.2348  136.4116 H   0  0  0  0  0  0  0  0  0  0  0  0
  128.0089  119.0473  137.9886 H   0  0  0  0  0  0  0  0  0  0  0  0
  130.0263  120.3403  136.6963 H   0  0  0  0  0  0  0  0  0  0  0  0
  1  2  1  0
  2  3  2  0
  3  4  1  0
  4  5  1  0
  5  6  1  0
  6  7  2  0
  7  8  1  0
  8  9  2  0
  9 10  1  0
 10 11  2  0
 11 12  1  0
 12 13  1  0
 13 14  1  0
 14 15  2  0
 14 16  2  0
 14 17  1  0
 17 18  1  0
 18 19  1  0
 12 20  2  0
 20 21  1  0
 21 22  1  0
 22 23  1  0
 23 24  1  0
 24 25  1  0
 25 26  1  0
 26 27  1  0
 25 28  1  0
 28 29  1  0
 21 30  2  0
  4 31  2  0
 31 32  1  0
 32 33  1  0
 33 34  1  0
 34 35  1  0
 35 36  1  0
 36 37  1  0
 36 38  1  0
 36 39  1  0
 39 40  1  0
 32 41  2  0
 41  2  1  0
 30  6  1  0
 40 33  1  0
 30 10  1  0
 27 22  1  0
 29 25  1  0
  1 42  1  0
  1 43  1  0
  1 44  1  0
  3 45  1  0
  5 46  1  0
  8 47  1  0
 11 48  1  0
 13 49  1  0
 17 50  1  0
 17 51  1  0
 18 52  1  0
 18 53  1  0
 19 54  1  0
 20 55  1  0
 23 56  1  0
 23 57  1  0
 24 58  1  0
 24 59  1  0
 26 60  1  0
 26 61  1  0
 27 62  1  0
 27 63  1  0
 28 64  1  0
 28 65  1  0
 29 66  1  0
 29 67  1  0
 31 68  1  0
 34 69  1  0
 34 70  1  0
 35 71  1  0
 35 72  1  0
 39 73  1  0
 39 74  1  0
 40 75  1  0
 40 76  1  0
 41 77  1  0
M  END
$$$$

     RDKit          3D

 77 82  0  0  0  0  0  0  0  0999 V2000
  131.0190  121.5230  135.5110 C   0  0  0  0  0  0  0  0  0  0  0  0
  130.3950  120.2830  134.9450 C   0  0  0  0  0  0  0  0  0  0  0  0
  130.6240  119.9160  133.6170 C   0  0  0  0  0  0  0  0  0  0  0  0
  130.0800  118.7430  133.0790 C   0  0  0  0  0  0  0  0  0  0  0  0
  130.3510  118.4340  131.7370 N   0  0  0  0  0  0  0  0  0  0  0  0
  131.4840  118.5900  130.9060 C   0  0  0  0  0  0  0  0  0  0  0  0
  131.9410  119.8320  130.6480 N   0  0  0  0  0  0  0  0  0  0  0  0
  133.0180  119.9350  129.8730 C   0  0  0  0  0  0  0  0  0  0  0  0
  133.6920  118.9220  129.3260 N   0  0  0  0  0  0  0  0  0  0  0  0
  133.2370  117.6940  129.5800 C   0  0  0  0  0  0  0  0  0  0  0  0
  133.9420  116.6470  129.0100 C   0  0  0  0  0  0  0  0  0  0  0  0
  133.5530  115.3260  129.1890 C   0  0  0  0  0  0  0  0  0  0  0  0
  134.3440  114.2790  128.6260 N   0  0  0  0  0  0  0  0  0  0  0  0
  133.5210  112.8860  128.1150 S   0  0  0  0  0  6  0  0  0  0  0  0
  134.0890  112.4110  126.8740 O   0  0  0  0  0  0  0  0  0  0  0  0
  133.4640  112.0370  129.2860 O   0  0  0  0  0  0  0  0  0  0  0  0
  131.8850  113.5260  127.8260 C   0  0  0  0  0  0  0  0  0  0  0  0
  131.0510  112.5040  127.0840 C   0  0  0  0  0  0  0  0  0  0  0  0
  131.8350  111.3440  126.8110 O   0  0  0  0  0  0  0  0  0  0  0  0
  132.4460  115.0250  129.9690 C   0  0  0  0  0  0  0  0  0  0  0  0
  131.7040  116.0550  130.5680 C   0  0  0  0  0  0  0  0  0  0  0  0
  130.5760  115.7550  131.3950 N   0  0  0  0  0  0  0  0  0  0  0  0
  129.2760  115.8950  130.6920 C   0  0  0  0  0  0  0  0  0  0  0  0
  128.1300  115.7170  131.6950 C   0  0  0  0  0  0  0  0  0  0  0  0
  128.2580  114.3950  132.4260 C   0  0  0  0  0  0  0  0  0  0  0  0
  129.6260  114.1810  133.0480 C   0  0  0  0  0  0  0  0  0  0  0  0
  130.7380  114.4090  132.0150 C   0  0  0  0  0  0  0  0  0  0  0  0
  127.4960  113.1940  131.9050 C   0  0  0  0  0  0  0  0  0  0  0  0
  127.0500  113.8720  133.1710 C   0  0  0  0  0  0  0  0  0  0  0  0
  132.1090  117.4270  130.3760 C   0  0  0  0  0  0  0  0  0  0  0  0
  129.3070  117.9370  133.9250 C   0  0  0  0  0  0  0  0  0  0  0  0
  129.0590  118.2520  135.2760 C   0  0  0  0  0  0  0  0  0  0  0  0
  128.2940  117.4250  136.0940 N   0  0  0  0  0  0  0  0  0  0  0  0
  127.3710  118.0000  137.0790 C   0  0  0  0  0  0  0  0  0  0  0  0
  126.2340  117.0300  137.3410 C   0  0  0  0  0  0  0  0  0  0  0  0
  126.7790  115.7180  137.8640 C   0  0  0  0  0  0  0  0  0  0  0  0
  126.7510  115.7290  139.2250 F   0  0  0  0  0  0  0  0  0  0  0  0
  125.9330  114.7190  137.4880 F   0  0  0  0  0  0  0  0  0  0  0  0
  128.1850  115.3760  137.4170 C   0  0  0  0  0  0  0  0  0  0  0  0
  128.4560  115.9690  136.0470 C   0  0  0  0  0  0  0  0  0  0  0  0
  129.6260  119.4410  135.7600 C   0  0  0  0  0  0  0  0  0  0  0  0
  130.9956  121.4765  136.6098 H   0  0  0  0  0  0  0  0  0  0  0  0
  132.0619  121.5975  135.1693 H   0  0  0  0  0  0  0  0  0  0  0  0
  130.4573  122.4049  135.1693 H   0  0  0  0  0  0  0  0  0  0  0  0
  131.2452  120.5625  132.9797 H   0  0  0  0  0  0  0  0  0  0  0  0
  129.5640  118.0680  131.1980 H   0  0  0  0  0  0  0  0  0  0  0  0
  133.3868  120.9500  129.6640 H   0  0  0  0  0  0  0  0  0  0  0  0
  134.8312  116.8671  128.4010 H   0  0  0  0  0  0  0  0  0  0  0  0
  134.9850  114.5690  127.8840 H   0  0  0  0  0  0  0  0  0  0  0  0
  131.4078  113.7541  128.7905 H   0  0  0  0  0  0  0  0  0  0  0  0
  131.9579  114.4406  127.2192 H   0  0  0  0  0  0  0  0  0  0  0  0
  130.1852  112.2222  127.7012 H   0  0  0  0  0  0  0  0  0  0  0  0
  130.7049  112.9390  126.1348 H   0  0  0  0  0  0  0  0  0  0  0  0
  131.3750  110.5750  127.1880 H   0  0  0  0  0  0  0  0  0  0  0  0
  132.1489  113.9765  130.1185 H   0  0  0  0  0  0  0  0  0  0  0  0
  129.2118  116.8938  130.2356 H   0  0  0  0  0  0  0  0  0  0  0  0
  129.1990  115.1275  129.9078 H   0  0  0  0  0  0  0  0  0  0  0  0
  128.1594  116.5382  132.4262 H   0  0  0  0  0  0  0  0  0  0  0  0
  127.1760  115.7274  131.1474 H   0  0  0  0  0  0  0  0  0  0  0  0
  129.7576  114.8874  133.8809 H   0  0  0  0  0  0  0  0  0  0  0  0
  129.6895  113.1443  133.4103 H   0  0  0  0  0  0  0  0  0  0  0  0
  131.7174  114.3505  132.5124 H   0  0  0  0  0  0  0  0  0  0  0  0
  130.6751  113.6370  131.2340 H   0  0  0  0  0  0  0  0  0  0  0  0
  126.8896  113.2819  130.9915 H   0  0  0  0  0  0  0  0  0  0  0  0
  127.7644  112.1637  131.6284 H   0  0  0  0  0  0  0  0  0  0  0  0
  126.1172  114.4548  133.1826 H   0  0  0  0  0  0  0  0  0  0  0  0
  126.8575  113.5411  134.2022 H   0  0  0  0  0  0  0  0  0  0  0  0
  128.8726  117.0134  133.5148 H   0  0  0  0  0  0  0  0  0  0  0  0
  127.9112  118.1924  138.0177 H   0  0  0  0  0  0  0  0  0  0  0  0
  126.9624  118.9435  136.6882 H   0  0  0  0  0  0  0  0  0  0  0  0
  125.5509  117.4631  138.0865 H   0  0  0  0  0  0  0  0  0  0  0  0
  125.6940  116.8460  136.4005 H   0  0  0  0  0  0  0  0  0  0  0  0
  128.9061  115.7855  138.1397 H   0  0  0  0  0  0  0  0  0  0  0  0
  128.2892  114.2823  137.3626 H   0  0  0  0  0  0  0  0  0  0  0  0
  129.4842  115.7259  135.7410 H   0  0  0  0  0  0  0  0  0  0  0  0
  127.7436  115.5480  135.3222 H   0  0  0  0  0  0  0  0  0  0  0  0
  129.4619  119.7207  136.8111 H   0  0  0  0  0  0  0  0  0  0  0  0
  1  2  1  0
  2  3  2  0
  3  4  1  0
  4  5  1  0
  5  6  1  0
  6  7  2  0
  7  8  1  0
  8  9  2  0
  9 10  1  0
 10 11  2  0
 11 12  1  0
 12 13  1  0
 13 14  1  0
 14 15  2  0
 14 16  2  0
 14 17  1  0
 17 18  1  0
 18 19  1  0
 12 20  2  0
 20 21  1  0
 21 22  1  0
 22 23  1  0
 23 24  1  0
 24 25  1  0
 25 26  1  0
 26 27  1  0
 25 28  1  0
 28 29  1  0
 21 30  2  0
  4 31  2  0
 31 32  1  0
 32 33  1  0
 33 34  1  0
 34 35  1  0
 35 36  1  0
 36 37  1  0
 36 38  1  0
 36 39  1  0
 39 40  1  0
 32 41  2  0
 41  2  1  0
 30  6  1  0
 40 33  1  0
 30 10  1  0
 27 22  1  0
 29 25  1  0
  1 42  1  0
  1 43  1  0
  1 44  1  0
  3 45  1  0
  5 46  1  0
  8 47  1  0
 11 48  1  0
 13 49  1  0
 17 50  1  0
 17 51  1  0
 18 52  1  0
 18 53  1  0
 19 54  1  0
 20 55  1  0
 23 56  1  0
 23 57  1  0
 24 58  1  0
 24 59  1  0
 26 60  1  0
 26 61  1  0
 27 62  1  0
 27 63  1  0
 28 64  1  0
 28 65  1  0
 29 66  1  0
 29 67  1  0
 31 68  1  0
 34 69  1  0
 34 70  1  0
 35 71  1  0
 35 72  1  0
 39 73  1  0
 39 74  1  0
 40 75  1  0
 40 76  1  0
 41 77  1  0
M  END
$$$$

     RDKit          3D

 77 82  0  0  0  0  0  0  0  0999 V2000
  131.3350  121.7200  135.2550 C   0  0  0  0  0  0  0  0  0  0  0  0
  130.6910  120.4400  134.8130 C   0  0  0  0  0  0  0  0  0  0  0  0
  130.8630  119.9740  133.5070 C   0  0  0  0  0  0  0  0  0  0  0  0
  130.3010  118.7630  133.0830 C   0  0  0  0  0  0  0  0  0  0  0  0
  130.5140  118.3540  131.7580 N   0  0  0  0  0  0  0  0  0  0  0  0
  131.6690  118.1790  130.9610 C   0  0  0  0  0  0  0  0  0  0  0  0
  132.4250  119.2540  130.6590 N   0  0  0  0  0  0  0  0  0  0  0  0
  133.5100  119.0450  129.9190 C   0  0  0  0  0  0  0  0  0  0  0  0
  133.9240  117.8680  129.4460 N   0  0  0  0  0  0  0  0  0  0  0  0
  133.1740  116.8070  129.7430 C   0  0  0  0  0  0  0  0  0  0  0  0
  133.6100  115.5880  129.2500 C   0  0  0  0  0  0  0  0  0  0  0  0
  132.9010  114.4150  129.4790 C   0  0  0  0  0  0  0  0  0  0  0  0
  133.4210  113.1760  128.9970 N   0  0  0  0  0  0  0  0  0  0  0  0
  133.6550  113.0420  127.3220 S   0  0  0  0  0  6  0  0  0  0  0  0
  133.2800  114.2790  126.6760 O   0  0  0  0  0  0  0  0  0  0  0  0
  134.9890  112.4960  127.1770 O   0  0  0  0  0  0  0  0  0  0  0  0
  132.4930  111.7610  126.9010 C   0  0  0  0  0  0  0  0  0  0  0  0
  131.1050  112.1470  127.3640 C   0  0  0  0  0  0  0  0  0  0  0  0
  130.6340  113.2610  126.6090 O   0  0  0  0  0  0  0  0  0  0  0  0
  131.7380  114.4400  130.2330 C   0  0  0  0  0  0  0  0  0  0  0  0
  131.2610  115.6530  130.7550 C   0  0  0  0  0  0  0  0  0  0  0  0
  130.0760  115.6870  131.5560 N   0  0  0  0  0  0  0  0  0  0  0  0
  128.8260  115.7260  130.7560 C   0  0  0  0  0  0  0  0  0  0  0  0
  127.6260  115.9270  131.6900 C   0  0  0  0  0  0  0  0  0  0  0  0
  127.5980  114.8580  132.7640 C   0  0  0  0  0  0  0  0  0  0  0  0
  128.9130  114.7190  133.5110 C   0  0  0  0  0  0  0  0  0  0  0  0
  130.0840  114.5610  132.5320 C   0  0  0  0  0  0  0  0  0  0  0  0
  126.7500  113.6230  132.5450 C   0  0  0  0  0  0  0  0  0  0  0  0
  126.3160  114.6610  133.5420 C   0  0  0  0  0  0  0  0  0  0  0  0
  131.9970  116.8700  130.5110 C   0  0  0  0  0  0  0  0  0  0  0  0
  129.5700  118.0230  134.0220 C   0  0  0  0  0  0  0  0  0  0  0  0
  129.3790  118.4390  135.3550 C   0  0  0  0  0  0  0  0  0  0  0  0
  128.6550  117.6750  136.2650 N   0  0  0  0  0  0  0  0  0  0  0  0
  127.5120  118.2550  136.9790 C   0  0  0  0  0  0  0  0  0  0  0  0
  126.5300  117.1580  137.3500 C   0  0  0  0  0  0  0  0  0  0  0  0
  127.2080  116.1290  138.2300 C   0  0  0  0  0  0  0  0  0  0  0  0
  126.9770  116.4330  139.5370 F   0  0  0  0  0  0  0  0  0  0  0  0
  126.6110  114.9230  138.0230 F   0  0  0  0  0  0  0  0  0  0  0  0
  128.7020  115.9870  138.0290 C   0  0  0  0  0  0  0  0  0  0  0  0
  129.0680  116.3070  136.5910 C   0  0  0  0  0  0  0  0  0  0  0  0
  129.9630  119.6610  135.7220 C   0  0  0  0  0  0  0  0  0  0  0  0
  131.3551  121.7599  136.3541 H   0  0  0  0  0  0  0  0  0  0  0  0
  132.3635  121.7659  134.8676 H   0  0  0  0  0  0  0  0  0  0  0  0
  130.7589  122.5732  134.8676 H   0  0  0  0  0  0  0  0  0  0  0  0
  131.4528  120.5713  132.7961 H   0  0  0  0  0  0  0  0  0  0  0  0
  129.6720  118.1940  131.2020 H   0  0  0  0  0  0  0  0  0  0  0  0
  134.1235  119.9246  129.6740 H   0  0  0  0  0  0  0  0  0  0  0  0
  134.5396  115.5476  128.6633 H   0  0  0  0  0  0  0  0  0  0  0  0
  134.2640  112.8440  129.4720 H   0  0  0  0  0  0  0  0  0  0  0  0
  132.4866  111.6194  125.8102 H   0  0  0  0  0  0  0  0  0  0  0  0
  132.7916  110.8259  127.3975 H   0  0  0  0  0  0  0  0  0  0  0  0
  130.4232  111.2956  127.2219 H   0  0  0  0  0  0  0  0  0  0  0  0
  131.1414  112.4205  128.4288 H   0  0  0  0  0  0  0  0  0  0  0  0
  130.1130  113.8280  127.2050 H   0  0  0  0  0  0  0  0  0  0  0  0
  131.1873  113.5069  130.4229 H   0  0  0  0  0  0  0  0  0  0  0  0
  128.8757  116.5586  130.0388 H   0  0  0  0  0  0  0  0  0  0  0  0
  128.7106  114.7778  130.2104 H   0  0  0  0  0  0  0  0  0  0  0  0
  127.7009  116.9156  132.1664 H   0  0  0  0  0  0  0  0  0  0  0  0
  126.7015  115.8577  131.0979 H   0  0  0  0  0  0  0  0  0  0  0  0
  129.0753  115.6172  134.1249 H   0  0  0  0  0  0  0  0  0  0  0  0
  128.8631  113.8231  134.1473 H   0  0  0  0  0  0  0  0  0  0  0  0
  131.0315  114.5677  133.0907 H   0  0  0  0  0  0  0  0  0  0  0  0
  129.9817  113.6086  131.9913 H   0  0  0  0  0  0  0  0  0  0  0  0
  126.1937  113.4981  131.6043 H   0  0  0  0  0  0  0  0  0  0  0  0
  126.9324  112.5389  132.5818 H   0  0  0  0  0  0  0  0  0  0  0  0
  125.4421  115.2945  133.3302 H   0  0  0  0  0  0  0  0  0  0  0  0
  126.0498  114.6488  134.6092 H   0  0  0  0  0  0  0  0  0  0  0  0
  129.1230  117.0699  133.7028 H   0  0  0  0  0  0  0  0  0  0  0  0
  127.8666  118.7529  137.8935 H   0  0  0  0  0  0  0  0  0  0  0  0
  127.0109  118.9881  136.3298 H   0  0  0  0  0  0  0  0  0  0  0  0
  125.6807  117.5983  137.8930 H   0  0  0  0  0  0  0  0  0  0  0  0
  126.1736  116.6680  136.4319 H   0  0  0  0  0  0  0  0  0  0  0  0
  129.2271  116.6816  138.7012 H   0  0  0  0  0  0  0  0  0  0  0  0
  128.9986  114.9519  138.2540 H   0  0  0  0  0  0  0  0  0  0  0  0
  130.1564  116.2138  136.4620 H   0  0  0  0  0  0  0  0  0  0  0  0
  128.5531  115.6032  135.9205 H   0  0  0  0  0  0  0  0  0  0  0  0
  129.8456  120.0185  136.7556 H   0  0  0  0  0  0  0  0  0  0  0  0
  1  2  1  0
  2  3  2  0
  3  4  1  0
  4  5  1  0
  5  6  1  0
  6  7  2  0
  7  8  1  0
  8  9  2  0
  9 10  1  0
 10 11  2  0
 11 12  1  0
 12 13  1  0
 13 14  1  0
 14 15  2  0
 14 16  2  0
 14 17  1  0
 17 18  1  0
 18 19  1  0
 12 20  2  0
 20 21  1  0
 21 22  1  0
 22 23  1  0
 23 24  1  0
 24 25  1  0
 25 26  1  0
 26 27  1  0
 25 28  1  0
 28 29  1  0
 21 30  2  0
  4 31  2  0
 31 32  1  0
 32 33  1  0
 33 34  1  0
 34 35  1  0
 35 36  1  0
 36 37  1  0
 36 38  1  0
 36 39  1  0
 39 40  1  0
 32 41  2  0
 41  2  1  0
 30  6  1  0
 40 33  1  0
 30 10  1  0
 27 22  1  0
 29 25  1  0
  1 42  1  0
  1 43  1  0
  1 44  1  0
  3 45  1  0
  5 46  1  0
  8 47  1  0
 11 48  1  0
 13 49  1  0
 17 50  1  0
 17 51  1  0
 18 52  1  0
 18 53  1  0
 19 54  1  0
 20 55  1  0
 23 56  1  0
 23 57  1  0
 24 58  1  0
 24 59  1  0
 26 60  1  0
 26 61  1  0
 27 62  1  0
 27 63  1  0
 28 64  1  0
 28 65  1  0
 29 66  1  0
 29 67  1  0
 31 68  1  0
 34 69  1  0
 34 70  1  0
 35 71  1  0
 35 72  1  0
 39 73  1  0
 39 74  1  0
 40 75  1  0
 40 76  1  0
 41 77  1  0
M  END
$$$$

     RDKit          3D

 77 82  0  0  0  0  0  0  0  0999 V2000
  129.3380  122.3440  134.6150 C   0  0  0  0  0  0  0  0  0  0  0  0
  129.3100  120.8630  134.3840 C   0  0  0  0  0  0  0  0  0  0  0  0
  129.7270  120.3280  133.1630 C   0  0  0  0  0  0  0  0  0  0  0  0
  129.7430  118.9460  132.9380 C   0  0  0  0  0  0  0  0  0  0  0  0
  130.1740  118.4760  131.6880 N   0  0  0  0  0  0  0  0  0  0  0  0
  131.3690  118.6220  130.9460 C   0  0  0  0  0  0  0  0  0  0  0  0
  131.8830  119.8570  130.7720 N   0  0  0  0  0  0  0  0  0  0  0  0
  133.0160  119.9510  130.0790 C   0  0  0  0  0  0  0  0  0  0  0  0
  133.6940  118.9360  129.5400 N   0  0  0  0  0  0  0  0  0  0  0  0
  133.1820  117.7160  129.7110 C   0  0  0  0  0  0  0  0  0  0  0  0
  133.8920  116.6680  129.1500 C   0  0  0  0  0  0  0  0  0  0  0  0
  133.4480  115.3550  129.2480 C   0  0  0  0  0  0  0  0  0  0  0  0
  134.2420  114.3030  128.7010 N   0  0  0  0  0  0  0  0  0  0  0  0
  135.7170  113.9740  129.4730 S   0  0  0  0  0  6  0  0  0  0  0  0
  136.7980  114.0520  128.5160 O   0  0  0  0  0  0  0  0  0  0  0  0
  135.7070  114.8030  130.6600 O   0  0  0  0  0  0  0  0  0  0  0  0
  135.4820  112.2850  129.9850 C   0  0  0  0  0  0  0  0  0  0  0  0
  134.1460  112.1340  130.6770 C   0  0  0  0  0  0  0  0  0  0  0  0
  133.1150  111.9530  129.7090 O   0  0  0  0  0  0  0  0  0  0  0  0
  132.2790  115.0640  129.9350 C   0  0  0  0  0  0  0  0  0  0  0  0
  131.5290  116.0960  130.5220 C   0  0  0  0  0  0  0  0  0  0  0  0
  130.3360  115.8050  131.2550 N   0  0  0  0  0  0  0  0  0  0  0  0
  129.1230  115.7340  130.4010 C   0  0  0  0  0  0  0  0  0  0  0  0
  127.8810  115.5840  131.2880 C   0  0  0  0  0  0  0  0  0  0  0  0
  128.0190  114.3850  132.2070 C   0  0  0  0  0  0  0  0  0  0  0  0
  129.3150  114.3790  132.9970 C   0  0  0  0  0  0  0  0  0  0  0  0
  130.5230  114.5720  132.0710 C   0  0  0  0  0  0  0  0  0  0  0  0
  127.4190  113.0630  131.7780 C   0  0  0  0  0  0  0  0  0  0  0  0
  126.7730  113.8560  132.8800 C   0  0  0  0  0  0  0  0  0  0  0  0
  131.9910  117.4590  130.4150 C   0  0  0  0  0  0  0  0  0  0  0  0
  129.3400  118.1110  133.9900 C   0  0  0  0  0  0  0  0  0  0  0  0
  128.9260  118.5980  135.2460 C   0  0  0  0  0  0  0  0  0  0  0  0
  128.5400  117.7420  136.2740 N   0  0  0  0  0  0  0  0  0  0  0  0
  127.5560  116.6830  136.0290 C   0  0  0  0  0  0  0  0  0  0  0  0
  127.7880  115.5370  136.9970 C   0  0  0  0  0  0  0  0  0  0  0  0
  127.6600  116.0270  138.4240 C   0  0  0  0  0  0  0  0  0  0  0  0
  126.3890  115.8110  138.8620 F   0  0  0  0  0  0  0  0  0  0  0  0
  128.4570  115.2590  139.2170 F   0  0  0  0  0  0  0  0  0  0  0  0
  127.9990  117.4870  138.6410 C   0  0  0  0  0  0  0  0  0  0  0  0
  129.0450  117.9350  137.6370 C   0  0  0  0  0  0  0  0  0  0  0  0
  128.9270  119.9920  135.4130 C   0  0  0  0  0  0  0  0  0  0  0  0
  129.3418  122.5464  135.6962 H   0  0  0  0  0  0  0  0  0  0  0  0
  130.2443  122.7691  134.1592 H   0  0  0  0  0  0  0  0  0  0  0  0
  128.4484  122.8031  134.1592 H   0  0  0  0  0  0  0  0  0  0  0  0
  130.0500  121.0073  132.3604 H   0  0  0  0  0  0  0  0  0  0  0  0
  129.4800  117.9590  131.1440 H   0  0  0  0  0  0  0  0  0  0  0  0
  133.4319  120.9595  129.9376 H   0  0  0  0  0  0  0  0  0  0  0  0
  134.8292  116.8797  128.6144 H   0  0  0  0  0  0  0  0  0  0  0  0
  133.7490  113.4190  128.5510 H   0  0  0  0  0  0  0  0  0  0  0  0
  135.5107  111.6296  129.1020 H   0  0  0  0  0  0  0  0  0  0  0  0
  136.2838  112.0054  130.6843 H   0  0  0  0  0  0  0  0  0  0  0  0
  134.1776  111.2598  131.3439 H   0  0  0  0  0  0  0  0  0  0  0  0
  133.9372  113.0415  131.2626 H   0  0  0  0  0  0  0  0  0  0  0  0
  133.1080  111.0160  129.4490 H   0  0  0  0  0  0  0  0  0  0  0  0
  131.9382  114.0216  130.0204 H   0  0  0  0  0  0  0  0  0  0  0  0
  129.0393  116.6552  129.8057 H   0  0  0  0  0  0  0  0  0  0  0  0
  129.1992  114.8677  129.7274 H   0  0  0  0  0  0  0  0  0  0  0  0
  127.7598  116.4927  131.8959 H   0  0  0  0  0  0  0  0  0  0  0  0
  127.0022  115.4356  130.6432 H   0  0  0  0  0  0  0  0  0  0  0  0
  129.2916  115.1961  133.7331 H   0  0  0  0  0  0  0  0  0  0  0  0
  129.4128  113.4074  133.5035 H   0  0  0  0  0  0  0  0  0  0  0  0
  131.4364  114.6687  132.6763 H   0  0  0  0  0  0  0  0  0  0  0  0
  130.6138  113.7026  131.4033 H   0  0  0  0  0  0  0  0  0  0  0  0
  126.9231  112.9761  130.8000 H   0  0  0  0  0  0  0  0  0  0  0  0
  127.7958  112.0343  131.6790 H   0  0  0  0  0  0  0  0  0  0  0  0
  125.8045  114.3482  132.7075 H   0  0  0  0  0  0  0  0  0  0  0  0
  126.4822  113.6458  133.9198 H   0  0  0  0  0  0  0  0  0  0  0  0
  129.3474  117.0232  133.8270 H   0  0  0  0  0  0  0  0  0  0  0  0
  126.5423  117.0848  136.1739 H   0  0  0  0  0  0  0  0  0  0  0  0
  127.6635  116.3166  134.9974 H   0  0  0  0  0  0  0  0  0  0  0  0
  127.0417  114.7498  136.8143 H   0  0  0  0  0  0  0  0  0  0  0  0
  128.8006  115.1357  136.8437 H   0  0  0  0  0  0  0  0  0  0  0  0
  127.0903  118.0940  138.5149 H   0  0  0  0  0  0  0  0  0  0  0  0
  128.3978  117.6164  139.6580 H   0  0  0  0  0  0  0  0  0  0  0  0
  129.2708  118.9999  137.7954 H   0  0  0  0  0  0  0  0  0  0  0  0
  129.9588  117.3380  137.7737 H   0  0  0  0  0  0  0  0  0  0  0  0
  128.6178  120.4134  136.3809 H   0  0  0  0  0  0  0  0  0  0  0  0
  1  2  1  0
  2  3  2  0
  3  4  1  0
  4  5  1  0
  5  6  1  0
  6  7  2  0
  7  8  1  0
  8  9  2  0
  9 10  1  0
 10 11  2  0
 11 12  1  0
 12 13  1  0
 13 14  1  0
 14 15  2  0
 14 16  2  0
 14 17  1  0
 17 18  1  0
 18 19  1  0
 12 20  2  0
 20 21  1  0
 21 22  1  0
 22 23  1  0
 23 24  1  0
 24 25  1  0
 25 26  1  0
 26 27  1  0
 25 28  1  0
 28 29  1  0
 21 30  2  0
  4 31  2  0
 31 32  1  0
 32 33  1  0
 33 34  1  0
 34 35  1  0
 35 36  1  0
 36 37  1  0
 36 38  1  0
 36 39  1  0
 39 40  1  0
 32 41  2  0
 41  2  1  0
 30  6  1  0
 40 33  1  0
 30 10  1  0
 27 22  1  0
 29 25  1  0
  1 42  1  0
  1 43  1  0
  1 44  1  0
  3 45  1  0
  5 46  1  0
  8 47  1  0
 11 48  1  0
 13 49  1  0
 17 50  1  0
 17 51  1  0
 18 52  1  0
 18 53  1  0
 19 54  1  0
 20 55  1  0
 23 56  1  0
 23 57  1  0
 24 58  1  0
 24 59  1  0
 26 60  1  0
 26 61  1  0
 27 62  1  0
 27 63  1  0
 28 64  1  0
 28 65  1  0
 29 66  1  0
 29 67  1  0
 31 68  1  0
 34 69  1  0
 34 70  1  0
 35 71  1  0
 35 72  1  0
 39 73  1  0
 39 74  1  0
 40 75  1  0
 40 76  1  0
 41 77  1  0
M  END
$$$$

     RDKit          3D

 77 82  0  0  0  0  0  0  0  0999 V2000
  133.4570  120.2850  128.9840 C   0  0  0  0  0  0  0  0  0  0  0  0
  132.8760  119.0930  129.6840 C   0  0  0  0  0  0  0  0  0  0  0  0
  131.8210  119.2450  130.5860 C   0  0  0  0  0  0  0  0  0  0  0  0
  131.2380  118.1430  131.2230 C   0  0  0  0  0  0  0  0  0  0  0  0
  130.1810  118.3670  132.1180 N   0  0  0  0  0  0  0  0  0  0  0  0
  130.0170  119.1960  133.2520 C   0  0  0  0  0  0  0  0  0  0  0  0
  130.6160  120.4050  133.2700 N   0  0  0  0  0  0  0  0  0  0  0  0
  130.4260  121.1600  134.3480 C   0  0  0  0  0  0  0  0  0  0  0  0
  129.6960  120.8360  135.4170 N   0  0  0  0  0  0  0  0  0  0  0  0
  129.1070  119.6400  135.3980 C   0  0  0  0  0  0  0  0  0  0  0  0
  128.3490  119.3090  136.5090 C   0  0  0  0  0  0  0  0  0  0  0  0
  127.7030  118.0840  136.6110 C   0  0  0  0  0  0  0  0  0  0  0  0
  126.8890  117.8120  137.7520 N   0  0  0  0  0  0  0  0  0  0  0  0
  127.5880  116.8860  138.9900 S   0  0  0  0  0  6  0  0  0  0  0  0
  128.0980  117.7570  140.0240 O   0  0  0  0  0  0  0  0  0  0  0  0
  126.6060  115.8640  139.2870 O   0  0  0  0  0  0  0  0  0  0  0  0
  128.9410  116.1090  138.1320 C   0  0  0  0  0  0  0  0  0  0  0  0
  130.2440  116.7830  138.4980 C   0  0  0  0  0  0  0  0  0  0  0  0
  130.9000  117.2450  137.3200 O   0  0  0  0  0  0  0  0  0  0  0  0
  127.7900  117.1630  135.5780 C   0  0  0  0  0  0  0  0  0  0  0  0
  128.5450  117.4570  134.4310 C   0  0  0  0  0  0  0  0  0  0  0  0
  128.6200  116.5240  133.3490 N   0  0  0  0  0  0  0  0  0  0  0  0
  129.1490  115.1960  133.7520 C   0  0  0  0  0  0  0  0  0  0  0  0
  129.3480  114.3250  132.5060 C   0  0  0  0  0  0  0  0  0  0  0  0
  128.0610  114.2250  131.7100 C   0  0  0  0  0  0  0  0  0  0  0  0
  127.4410  115.5740  131.3960 C   0  0  0  0  0  0  0  0  0  0  0  0
  127.3000  116.4210  132.6670 C   0  0  0  0  0  0  0  0  0  0  0  0
  127.1500  113.0380  131.9410 C   0  0  0  0  0  0  0  0  0  0  0  0
  127.9490  113.1310  130.6710 C   0  0  0  0  0  0  0  0  0  0  0  0
  129.2180  118.7290  134.3310 C   0  0  0  0  0  0  0  0  0  0  0  0
  131.7420  116.8720  130.9110 C   0  0  0  0  0  0  0  0  0  0  0  0
  132.7930  116.6610  129.9960 C   0  0  0  0  0  0  0  0  0  0  0  0
  133.2640  115.3850  129.7010 N   0  0  0  0  0  0  0  0  0  0  0  0
  132.3960  114.2140  129.8730 C   0  0  0  0  0  0  0  0  0  0  0  0
  132.8260  113.1160  128.9170 C   0  0  0  0  0  0  0  0  0  0  0  0
  134.2640  112.7250  129.1870 C   0  0  0  0  0  0  0  0  0  0  0  0
  134.2900  111.6570  130.0310 F   0  0  0  0  0  0  0  0  0  0  0  0
  134.8170  112.2850  128.0230 F   0  0  0  0  0  0  0  0  0  0  0  0
  135.1340  113.8170  129.7710 C   0  0  0  0  0  0  0  0  0  0  0  0
  134.6570  115.1770  129.2940 C   0  0  0  0  0  0  0  0  0  0  0  0
  133.3390  117.8030  129.3910 C   0  0  0  0  0  0  0  0  0  0  0  0
  133.8112  121.0117  129.7300 H   0  0  0  0  0  0  0  0  0  0  0  0
  134.3004  119.9654  128.3542 H   0  0  0  0  0  0  0  0  0  0  0  0
  132.6857  120.7524  128.3542 H   0  0  0  0  0  0  0  0  0  0  0  0
  131.4391  120.2539  130.8010 H   0  0  0  0  0  0  0  0  0  0  0  0
  129.3550  117.7810  131.9850 H   0  0  0  0  0  0  0  0  0  0  0  0
  130.9168  122.1444  134.3596 H   0  0  0  0  0  0  0  0  0  0  0  0
  128.2565  120.0343  137.3308 H   0  0  0  0  0  0  0  0  0  0  0  0
  126.4410  118.6310  138.1710 H   0  0  0  0  0  0  0  0  0  0  0  0
  128.9889  115.0469  138.4143 H   0  0  0  0  0  0  0  0  0  0  0  0
  128.7801  116.2012  137.0477 H   0  0  0  0  0  0  0  0  0  0  0  0
  130.0392  117.6373  139.1600 H   0  0  0  0  0  0  0  0  0  0  0  0
  130.8930  116.0597  139.0134 H   0  0  0  0  0  0  0  0  0  0  0  0
  130.2420  117.2820  136.6050 H   0  0  0  0  0  0  0  0  0  0  0  0
  127.2660  116.1991  135.6573 H   0  0  0  0  0  0  0  0  0  0  0  0
  130.1127  115.3260  134.2662 H   0  0  0  0  0  0  0  0  0  0  0  0
  128.4342  114.7073  134.4304 H   0  0  0  0  0  0  0  0  0  0  0  0
  130.1295  114.7721  131.8740 H   0  0  0  0  0  0  0  0  0  0  0  0
  129.6458  113.3152  132.8246 H   0  0  0  0  0  0  0  0  0  0  0  0
  128.0818  116.1064  130.6777 H   0  0  0  0  0  0  0  0  0  0  0  0
  126.4401  115.4101  130.9702 H   0  0  0  0  0  0  0  0  0  0  0  0
  126.9473  117.4277  132.3985 H   0  0  0  0  0  0  0  0  0  0  0  0
  126.5756  115.9449  133.3442 H   0  0  0  0  0  0  0  0  0  0  0  0
  127.4099  112.2853  132.6999 H   0  0  0  0  0  0  0  0  0  0  0  0
  126.0838  112.9122  132.1804 H   0  0  0  0  0  0  0  0  0  0  0  0
  128.7928  112.4460  130.5015 H   0  0  0  0  0  0  0  0  0  0  0  0
  127.7078  113.1010  129.5982 H   0  0  0  0  0  0  0  0  0  0  0  0
  131.2950  115.9966  131.4048 H   0  0  0  0  0  0  0  0  0  0  0  0
  132.4739  113.8495  130.9079 H   0  0  0  0  0  0  0  0  0  0  0  0
  131.3547  114.4969  129.6595 H   0  0  0  0  0  0  0  0  0  0  0  0
  132.1780  112.2381  129.0560 H   0  0  0  0  0  0  0  0  0  0  0  0
  132.7407  113.4841  127.8839 H   0  0  0  0  0  0  0  0  0  0  0  0
  135.0795  113.7771  130.8689 H   0  0  0  0  0  0  0  0  0  0  0  0
  136.1723  113.6643  129.4413 H   0  0  0  0  0  0  0  0  0  0  0  0
  135.2880  115.9615  129.7372 H   0  0  0  0  0  0  0  0  0  0  0  0
  134.7257  115.2220  128.1971 H   0  0  0  0  0  0  0  0  0  0  0  0
  134.1558  117.6822  128.6642 H   0  0  0  0  0  0  0  0  0  0  0  0
  1  2  1  0
  2  3  2  0
  3  4  1  0
  4  5  1  0
  5  6  1  0
  6  7  2  0
  7  8  1  0
  8  9  2  0
  9 10  1  0
 10 11  2  0
 11 12  1  0
 12 13  1  0
 13 14  1  0
 14 15  2  0
 14 16  2  0
 14 17  1  0
 17 18  1  0
 18 19  1  0
 12 20  2  0
 20 21  1  0
 21 22  1  0
 22 23  1  0
 23 24  1  0
 24 25  1  0
 25 26  1  0
 26 27  1  0
 25 28  1  0
 28 29  1  0
 21 30  2  0
  4 31  2  0
 31 32  1  0
 32 33  1  0
 33 34  1  0
 34 35  1  0
 35 36  1  0
 36 37  1  0
 36 38  1  0
 36 39  1  0
 39 40  1  0
 32 41  2  0
 41  2  1  0
 30  6  1  0
 40 33  1  0
 30 10  1  0
 27 22  1  0
 29 25  1  0
  1 42  1  0
  1 43  1  0
  1 44  1  0
  3 45  1  0
  5 46  1  0
  8 47  1  0
 11 48  1  0
 13 49  1  0
 17 50  1  0
 17 51  1  0
 18 52  1  0
 18 53  1  0
 19 54  1  0
 20 55  1  0
 23 56  1  0
 23 57  1  0
 24 58  1  0
 24 59  1  0
 26 60  1  0
 26 61  1  0
 27 62  1  0
 27 63  1  0
 28 64  1  0
 28 65  1  0
 29 66  1  0
 29 67  1  0
 31 68  1  0
 34 69  1  0
 34 70  1  0
 35 71  1  0
 35 72  1  0
 39 73  1  0
 39 74  1  0
 40 75  1  0
 40 76  1  0
 41 77  1  0
M  END
$$$$

     RDKit          3D

 77 82  0  0  0  0  0  0  0  0999 V2000
  133.7610  120.1950  128.8190 C   0  0  0  0  0  0  0  0  0  0  0  0
  133.1000  119.0650  129.5500 C   0  0  0  0  0  0  0  0  0  0  0  0
  132.0330  119.3100  130.4170 C   0  0  0  0  0  0  0  0  0  0  0  0
  131.3770  118.2660  131.0820 C   0  0  0  0  0  0  0  0  0  0  0  0
  130.3110  118.5830  131.9380 N   0  0  0  0  0  0  0  0  0  0  0  0
  130.1680  119.4540  133.0420 C   0  0  0  0  0  0  0  0  0  0  0  0
  130.7470  120.6710  132.9940 N   0  0  0  0  0  0  0  0  0  0  0  0
  130.5770  121.4670  134.0470 C   0  0  0  0  0  0  0  0  0  0  0  0
  129.8850  121.1740  135.1500 N   0  0  0  0  0  0  0  0  0  0  0  0
  129.3160  119.9690  135.1970 C   0  0  0  0  0  0  0  0  0  0  0  0
  128.5980  119.6710  136.3430 C   0  0  0  0  0  0  0  0  0  0  0  0
  127.9770  118.4410  136.5140 C   0  0  0  0  0  0  0  0  0  0  0  0
  127.2020  118.2030  137.6890 N   0  0  0  0  0  0  0  0  0  0  0  0
  127.9970  117.4670  138.9950 S   0  0  0  0  0  6  0  0  0  0  0  0
  129.2320  116.8690  138.5410 O   0  0  0  0  0  0  0  0  0  0  0  0
  127.9890  118.4640  140.0440 O   0  0  0  0  0  0  0  0  0  0  0  0
  126.8380  116.1920  139.4450 C   0  0  0  0  0  0  0  0  0  0  0  0
  126.2820  115.5330  138.2010 C   0  0  0  0  0  0  0  0  0  0  0  0
  127.3490  115.0330  137.3990 O   0  0  0  0  0  0  0  0  0  0  0  0
  128.0480  117.4810  135.5160 C   0  0  0  0  0  0  0  0  0  0  0  0
  128.7620  117.7400  134.3350 C   0  0  0  0  0  0  0  0  0  0  0  0
  128.8200  116.7660  133.2890 N   0  0  0  0  0  0  0  0  0  0  0  0
  129.3520  115.4530  133.7360 C   0  0  0  0  0  0  0  0  0  0  0  0
  129.5320  114.5340  132.5220 C   0  0  0  0  0  0  0  0  0  0  0  0
  128.2330  114.4060  131.7490 C   0  0  0  0  0  0  0  0  0  0  0  0
  127.6110  115.7440  131.3910 C   0  0  0  0  0  0  0  0  0  0  0  0
  127.4900  116.6400  132.6310 C   0  0  0  0  0  0  0  0  0  0  0  0
  127.3230  113.2320  132.0380 C   0  0  0  0  0  0  0  0  0  0  0  0
  128.1040  113.2740  130.7540 C   0  0  0  0  0  0  0  0  0  0  0  0
  129.4100  119.0180  134.1640 C   0  0  0  0  0  0  0  0  0  0  0  0
  131.8200  116.9590  130.8360 C   0  0  0  0  0  0  0  0  0  0  0  0
  132.8810  116.6560  129.9590 C   0  0  0  0  0  0  0  0  0  0  0  0
  133.2920  115.3460  129.7290 N   0  0  0  0  0  0  0  0  0  0  0  0
  132.3260  114.2430  129.7900 C   0  0  0  0  0  0  0  0  0  0  0  0
  132.7930  113.1060  128.9000 C   0  0  0  0  0  0  0  0  0  0  0  0
  134.1520  112.6150  129.3520 C   0  0  0  0  0  0  0  0  0  0  0  0
  133.9910  111.5570  130.1940 F   0  0  0  0  0  0  0  0  0  0  0  0
  134.8150  112.1230  128.2690 F   0  0  0  0  0  0  0  0  0  0  0  0
  135.0180  113.6480  130.0410 C   0  0  0  0  0  0  0  0  0  0  0  0
  134.7060  115.0330  129.5050 C   0  0  0  0  0  0  0  0  0  0  0  0
  133.5020  117.7420  129.3230 C   0  0  0  0  0  0  0  0  0  0  0  0
  134.1779  120.9078  129.5457 H   0  0  0  0  0  0  0  0  0  0  0  0
  134.5702  119.7996  128.1875 H   0  0  0  0  0  0  0  0  0  0  0  0
  133.0197  120.7066  128.1875 H   0  0  0  0  0  0  0  0  0  0  0  0
  131.7003  120.3455  130.5814 H   0  0  0  0  0  0  0  0  0  0  0  0
  129.4540  118.0450  131.7970 H   0  0  0  0  0  0  0  0  0  0  0  0
  131.0510  122.4587  134.0043 H   0  0  0  0  0  0  0  0  0  0  0  0
  128.5177  120.4275  137.1375 H   0  0  0  0  0  0  0  0  0  0  0  0
  126.6820  119.0110  138.0380 H   0  0  0  0  0  0  0  0  0  0  0  0
  127.3488  115.4363  140.0599 H   0  0  0  0  0  0  0  0  0  0  0  0
  126.0114  116.6412  140.0150 H   0  0  0  0  0  0  0  0  0  0  0  0
  125.6237  114.7012  138.4921 H   0  0  0  0  0  0  0  0  0  0  0  0
  125.7109  116.2743  137.6228 H   0  0  0  0  0  0  0  0  0  0  0  0
  126.9690  114.7000  136.5680 H   0  0  0  0  0  0  0  0  0  0  0  0
  127.5431  116.5129  135.6500 H   0  0  0  0  0  0  0  0  0  0  0  0
  130.3230  115.6003  134.2314 H   0  0  0  0  0  0  0  0  0  0  0  0
  128.6457  114.9927  134.4426 H   0  0  0  0  0  0  0  0  0  0  0  0
  130.3049  114.9548  131.8621 H   0  0  0  0  0  0  0  0  0  0  0  0
  129.8331  113.5367  132.8750 H   0  0  0  0  0  0  0  0  0  0  0  0
  128.2426  116.2465  130.6436 H   0  0  0  0  0  0  0  0  0  0  0  0
  126.6040  115.5666  130.9856 H   0  0  0  0  0  0  0  0  0  0  0  0
  127.1352  117.6365  132.3292 H   0  0  0  0  0  0  0  0  0  0  0  0
  126.7747  116.1921  133.3365 H   0  0  0  0  0  0  0  0  0  0  0  0
  127.5920  112.5081  132.8213 H   0  0  0  0  0  0  0  0  0  0  0  0
  126.2600  113.1186  132.2972 H   0  0  0  0  0  0  0  0  0  0  0  0
  128.9437  112.5806  130.5988 H   0  0  0  0  0  0  0  0  0  0  0  0
  127.8477  113.2039  129.6866 H   0  0  0  0  0  0  0  0  0  0  0  0
  131.3150  116.1294  131.3526 H   0  0  0  0  0  0  0  0  0  0  0  0
  132.2436  113.8857  130.8271 H   0  0  0  0  0  0  0  0  0  0  0  0
  131.3444  114.5982  129.4432 H   0  0  0  0  0  0  0  0  0  0  0  0
  132.0700  112.2789  128.9571 H   0  0  0  0  0  0  0  0  0  0  0  0
  132.8675  113.4676  127.8638 H   0  0  0  0  0  0  0  0  0  0  0  0
  134.8214  113.6240  131.1230 H   0  0  0  0  0  0  0  0  0  0  0  0
  136.0759  113.4173  129.8471 H   0  0  0  0  0  0  0  0  0  0  0  0
  135.3307  115.7746  130.0243 H   0  0  0  0  0  0  0  0  0  0  0  0
  134.9171  115.0604  128.4258 H   0  0  0  0  0  0  0  0  0  0  0  0
  134.3298  117.5487  128.6248 H   0  0  0  0  0  0  0  0  0  0  0  0
  1  2  1  0
  2  3  2  0
  3  4  1  0
  4  5  1  0
  5  6  1  0
  6  7  2  0
  7  8  1  0
  8  9  2  0
  9 10  1  0
 10 11  2  0
 11 12  1  0
 12 13  1  0
 13 14  1  0
 14 15  2  0
 14 16  2  0
 14 17  1  0
 17 18  1  0
 18 19  1  0
 12 20  2  0
 20 21  1  0
 21 22  1  0
 22 23  1  0
 23 24  1  0
 24 25  1  0
 25 26  1  0
 26 27  1  0
 25 28  1  0
 28 29  1  0
 21 30  2  0
  4 31  2  0
 31 32  1  0
 32 33  1  0
 33 34  1  0
 34 35  1  0
 35 36  1  0
 36 37  1  0
 36 38  1  0
 36 39  1  0
 39 40  1  0
 32 41  2  0
 41  2  1  0
 30  6  1  0
 40 33  1  0
 30 10  1  0
 27 22  1  0
 29 25  1  0
  1 42  1  0
  1 43  1  0
  1 44  1  0
  3 45  1  0
  5 46  1  0
  8 47  1  0
 11 48  1  0
 13 49  1  0
 17 50  1  0
 17 51  1  0
 18 52  1  0
 18 53  1  0
 19 54  1  0
 20 55  1  0
 23 56  1  0
 23 57  1  0
 24 58  1  0
 24 59  1  0
 26 60  1  0
 26 61  1  0
 27 62  1  0
 27 63  1  0
 28 64  1  0
 28 65  1  0
 29 66  1  0
 29 67  1  0
 31 68  1  0
 34 69  1  0
 34 70  1  0
 35 71  1  0
 35 72  1  0
 39 73  1  0
 39 74  1  0
 40 75  1  0
 40 76  1  0
 41 77  1  0
M  END
$$$$

