
     RDKit          3D

 70 75  0  0  0  0  0  0  0  0999 V2000
  129.2420  116.7660  138.2790 O   0  0  0  0  0  0  0  0  0  0  0  0
  128.1190  117.4580  138.8780 S   0  0  0  0  0  6  0  0  0  0  0  0
  128.3140  118.3340  140.0120 O   0  0  0  0  0  0  0  0  0  0  0  0
  126.8720  116.2490  139.2730 C   0  0  0  0  0  0  0  0  0  0  0  0
  126.3490  115.5510  138.0370 C   0  0  0  0  0  0  0  0  0  0  0  0
  127.4470  114.9880  137.3230 O   0  0  0  0  0  0  0  0  0  0  0  0
  127.4110  118.3270  137.6060 N   0  0  0  0  0  0  0  0  0  0  0  0
  128.1650  118.4400  136.4000 C   0  0  0  0  0  0  0  0  0  0  0  0
  129.0040  119.5330  136.2240 C   0  0  0  0  0  0  0  0  0  0  0  0
  129.7730  119.6260  135.0640 C   0  0  0  0  0  0  0  0  0  0  0  0
  129.7140  118.6290  134.0700 C   0  0  0  0  0  0  0  0  0  0  0  0
  130.5420  118.8280  132.8720 C   0  0  0  0  0  0  0  0  0  0  0  0
  131.1250  117.8490  132.2120 N   0  0  0  0  0  0  0  0  0  0  0  0
  131.8730  118.3420  131.1430 C   0  0  0  0  0  0  0  0  0  0  0  0
  132.6030  117.5680  130.1840 C   0  0  0  0  0  0  0  0  0  0  0  0
  132.7230  116.1450  130.1460 N   0  0  0  0  0  0  0  0  0  0  0  0
  131.4470  115.4080  130.1420 C   0  0  0  0  0  0  0  0  0  0  0  0
  131.7340  113.9400  130.4130 C   0  0  0  0  0  0  0  0  0  0  0  0
  132.7190  113.4230  129.3880 C   0  0  0  0  0  0  0  0  0  0  0  0
  132.1230  113.3850  128.1660 F   0  0  0  0  0  0  0  0  0  0  0  0
  133.0410  112.1350  129.6850 F   0  0  0  0  0  0  0  0  0  0  0  0
  133.9870  114.2430  129.2980 C   0  0  0  0  0  0  0  0  0  0  0  0
  133.6420  115.7070  129.0780 C   0  0  0  0  0  0  0  0  0  0  0  0
  133.3000  118.2920  129.1840 C   0  0  0  0  0  0  0  0  0  0  0  0
  133.2770  119.6810  129.1060 C   0  0  0  0  0  0  0  0  0  0  0  0
  132.5570  120.4260  130.0330 C   0  0  0  0  0  0  0  0  0  0  0  0
  131.8660  119.7370  131.0420 C   0  0  0  0  0  0  0  0  0  0  0  0
  130.9160  120.4040  132.3130 S   0  0  0  0  0  0  0  0  0  0  0  0
  128.8830  117.4940  134.2620 C   0  0  0  0  0  0  0  0  0  0  0  0
  128.8870  116.4290  133.3380 N   0  0  0  0  0  0  0  0  0  0  0  0
  127.9070  116.4610  132.2340 C   0  0  0  0  0  0  0  0  0  0  0  0
  126.8550  115.3550  132.3590 C   0  0  0  0  0  0  0  0  0  0  0  0
  127.5040  113.9820  132.4080 C   0  0  0  0  0  0  0  0  0  0  0  0
  128.8970  113.9700  133.0160 C   0  0  0  0  0  0  0  0  0  0  0  0
  129.0710  115.1220  134.0120 C   0  0  0  0  0  0  0  0  0  0  0  0
  126.6010  112.7870  132.6370 C   0  0  0  0  0  0  0  0  0  0  0  0
  127.2200  113.0010  131.2880 C   0  0  0  0  0  0  0  0  0  0  0  0
  128.1130  117.4270  135.4390 C   0  0  0  0  0  0  0  0  0  0  0  0
  127.3070  115.4974  139.9482 H   0  0  0  0  0  0  0  0  0  0  0  0
  126.0301  116.7721  139.7501 H   0  0  0  0  0  0  0  0  0  0  0  0
  125.6520  114.7525  138.3313 H   0  0  0  0  0  0  0  0  0  0  0  0
  125.8206  116.2734  137.3975 H   0  0  0  0  0  0  0  0  0  0  0  0
  127.9030  115.7200  136.8720 H   0  0  0  0  0  0  0  0  0  0  0  0
  126.4570  117.9840  137.4760 H   0  0  0  0  0  0  0  0  0  0  0  0
  129.0614  120.3180  136.9924 H   0  0  0  0  0  0  0  0  0  0  0  0
  130.4365  120.4920  134.9228 H   0  0  0  0  0  0  0  0  0  0  0  0
  130.7861  115.8072  130.9255 H   0  0  0  0  0  0  0  0  0  0  0  0
  130.9513  115.5201  129.1664 H   0  0  0  0  0  0  0  0  0  0  0  0
  132.1610  113.8295  131.4207 H   0  0  0  0  0  0  0  0  0  0  0  0
  130.7989  113.3645  130.3468 H   0  0  0  0  0  0  0  0  0  0  0  0
  134.5558  114.1390  130.2338 H   0  0  0  0  0  0  0  0  0  0  0  0
  134.5921  113.8826  128.4530 H   0  0  0  0  0  0  0  0  0  0  0  0
  134.5602  116.3119  129.1094 H   0  0  0  0  0  0  0  0  0  0  0  0
  133.1619  115.8343  128.0965 H   0  0  0  0  0  0  0  0  0  0  0  0
  133.8836  117.7320  128.4384 H   0  0  0  0  0  0  0  0  0  0  0  0
  133.8319  120.1928  128.3059 H   0  0  0  0  0  0  0  0  0  0  0  0
  132.5296  121.5243  129.9773 H   0  0  0  0  0  0  0  0  0  0  0  0
  127.3978  117.4360  132.2410 H   0  0  0  0  0  0  0  0  0  0  0  0
  128.4541  116.3005  131.2933 H   0  0  0  0  0  0  0  0  0  0  0  0
  126.2774  115.5119  133.2819 H   0  0  0  0  0  0  0  0  0  0  0  0
  126.1979  115.3983  131.4779 H   0  0  0  0  0  0  0  0  0  0  0  0
  129.0529  113.0152  133.5394 H   0  0  0  0  0  0  0  0  0  0  0  0
  129.6334  114.0909  132.2079 H   0  0  0  0  0  0  0  0  0  0  0  0
  128.3254  115.0213  134.8145 H   0  0  0  0  0  0  0  0  0  0  0  0
  130.0881  115.0789  134.4287 H   0  0  0  0  0  0  0  0  0  0  0  0
  126.9413  111.9554  133.2715 H   0  0  0  0  0  0  0  0  0  0  0  0
  125.5739  112.6504  133.0063 H   0  0  0  0  0  0  0  0  0  0  0  0
  128.0136  112.3262  130.9347 H   0  0  0  0  0  0  0  0  0  0  0  0
  126.8335  113.0859  130.2616 H   0  0  0  0  0  0  0  0  0  0  0  0
  127.4573  116.5596  135.6053 H   0  0  0  0  0  0  0  0  0  0  0  0
  1  2  2  0
  2  3  2  0
  2  4  1  0
  4  5  1  0
  5  6  1  0
  2  7  1  0
  7  8  1  0
  8  9  2  0
  9 10  1  0
 10 11  2  0
 11 12  1  0
 12 13  2  0
 13 14  1  0
 14 15  2  0
 15 16  1  0
 16 17  1  0
 17 18  1  0
 18 19  1  0
 19 20  1  0
 19 21  1  0
 19 22  1  0
 22 23  1  0
 15 24  1  0
 24 25  2  0
 25 26  1  0
 26 27  2  0
 27 28  1  0
 11 29  1  0
 29 30  1  0
 30 31  1  0
 31 32  1  0
 32 33  1  0
 33 34  1  0
 34 35  1  0
 33 36  1  0
 36 37  1  0
 29 38  2  0
 38  8  1  0
 28 12  1  0
 35 30  1  0
 27 14  1  0
 37 33  1  0
 23 16  1  0
  4 39  1  0
  4 40  1  0
  5 41  1  0
  5 42  1  0
  6 43  1  0
  7 44  1  0
  9 45  1  0
 10 46  1  0
 17 47  1  0
 17 48  1  0
 18 49  1  0
 18 50  1  0
 22 51  1  0
 22 52  1  0
 23 53  1  0
 23 54  1  0
 24 55  1  0
 25 56  1  0
 26 57  1  0
 31 58  1  0
 31 59  1  0
 32 60  1  0
 32 61  1  0
 34 62  1  0
 34 63  1  0
 35 64  1  0
 35 65  1  0
 36 66  1  0
 36 67  1  0
 37 68  1  0
 37 69  1  0
 38 70  1  0
M  END
$$$$

     RDKit          3D

 70 75  0  0  0  0  0  0  0  0999 V2000
  128.0720  117.5230  139.7740 O   0  0  0  0  0  0  0  0  0  0  0  0
  127.5010  116.8490  138.6260 S   0  0  0  0  0  6  0  0  0  0  0  0
  126.3940  115.9310  138.7860 O   0  0  0  0  0  0  0  0  0  0  0  0
  128.8210  116.0350  137.7500 C   0  0  0  0  0  0  0  0  0  0  0  0
  130.1630  116.2640  138.4080 C   0  0  0  0  0  0  0  0  0  0  0  0
  130.6310  117.5660  138.0650 O   0  0  0  0  0  0  0  0  0  0  0  0
  127.0560  118.0920  137.5630 N   0  0  0  0  0  0  0  0  0  0  0  0
  127.8370  118.2430  136.3780 C   0  0  0  0  0  0  0  0  0  0  0  0
  128.6420  119.3660  136.2340 C   0  0  0  0  0  0  0  0  0  0  0  0
  129.4370  119.4970  135.0970 C   0  0  0  0  0  0  0  0  0  0  0  0
  129.4400  118.5080  134.0930 C   0  0  0  0  0  0  0  0  0  0  0  0
  130.2920  118.7470  132.9190 C   0  0  0  0  0  0  0  0  0  0  0  0
  130.9260  117.7960  132.2670 N   0  0  0  0  0  0  0  0  0  0  0  0
  131.6850  118.3250  131.2230 C   0  0  0  0  0  0  0  0  0  0  0  0
  132.4670  117.5870  130.2770 C   0  0  0  0  0  0  0  0  0  0  0  0
  132.6380  116.1690  130.2300 N   0  0  0  0  0  0  0  0  0  0  0  0
  131.3890  115.3870  130.2020 C   0  0  0  0  0  0  0  0  0  0  0  0
  131.7250  113.9280  130.4670 C   0  0  0  0  0  0  0  0  0  0  0  0
  132.7420  113.4540  129.4510 C   0  0  0  0  0  0  0  0  0  0  0  0
  132.1650  113.4050  128.2210 F   0  0  0  0  0  0  0  0  0  0  0  0
  133.1050  112.1770  129.7440 F   0  0  0  0  0  0  0  0  0  0  0  0
  133.9810  114.3200  129.3860 C   0  0  0  0  0  0  0  0  0  0  0  0
  133.5870  115.7720  129.1730 C   0  0  0  0  0  0  0  0  0  0  0  0
  133.1640  118.3440  129.3020 C   0  0  0  0  0  0  0  0  0  0  0  0
  133.0950  119.7320  129.2360 C   0  0  0  0  0  0  0  0  0  0  0  0
  132.3240  120.4420  130.1500 C   0  0  0  0  0  0  0  0  0  0  0  0
  131.6310  119.7200  131.1340 C   0  0  0  0  0  0  0  0  0  0  0  0
  130.6240  120.3410  132.3840 S   0  0  0  0  0  0  0  0  0  0  0  0
  128.6450  117.3430  134.2530 C   0  0  0  0  0  0  0  0  0  0  0  0
  128.7120  116.2870  133.3200 N   0  0  0  0  0  0  0  0  0  0  0  0
  127.7770  116.3080  132.1770 C   0  0  0  0  0  0  0  0  0  0  0  0
  126.7470  115.1780  132.2490 C   0  0  0  0  0  0  0  0  0  0  0  0
  127.4250  113.8200  132.3120 C   0  0  0  0  0  0  0  0  0  0  0  0
  128.7910  113.8330  132.9770 C   0  0  0  0  0  0  0  0  0  0  0  0
  128.8970  114.9780  133.9900 C   0  0  0  0  0  0  0  0  0  0  0  0
  126.5400  112.6020  132.4920 C   0  0  0  0  0  0  0  0  0  0  0  0
  127.2090  112.8430  131.1720 C   0  0  0  0  0  0  0  0  0  0  0  0
  127.8470  117.2380  135.4080 C   0  0  0  0  0  0  0  0  0  0  0  0
  128.6174  114.9543  137.7252 H   0  0  0  0  0  0  0  0  0  0  0  0
  128.8645  116.4550  136.7343 H   0  0  0  0  0  0  0  0  0  0  0  0
  130.0566  116.1860  139.5001 H   0  0  0  0  0  0  0  0  0  0  0  0
  130.8816  115.5070  138.0608 H   0  0  0  0  0  0  0  0  0  0  0  0
  130.1180  118.2050  138.5910 H   0  0  0  0  0  0  0  0  0  0  0  0
  126.0490  118.0270  137.3980 H   0  0  0  0  0  0  0  0  0  0  0  0
  128.6518  120.1449  137.0106 H   0  0  0  0  0  0  0  0  0  0  0  0
  130.0728  120.3872  134.9812 H   0  0  0  0  0  0  0  0  0  0  0  0
  130.7029  115.7563  130.9784 H   0  0  0  0  0  0  0  0  0  0  0  0
  130.9035  115.4888  129.2202 H   0  0  0  0  0  0  0  0  0  0  0  0
  132.1425  113.8255  131.4795 H   0  0  0  0  0  0  0  0  0  0  0  0
  130.8122  113.3198  130.3846 H   0  0  0  0  0  0  0  0  0  0  0  0
  134.5398  114.2284  130.3290 H   0  0  0  0  0  0  0  0  0  0  0  0
  134.6104  113.9889  128.5469 H   0  0  0  0  0  0  0  0  0  0  0  0
  134.4826  116.4088  129.2225 H   0  0  0  0  0  0  0  0  0  0  0  0
  133.1163  115.8897  128.1858 H   0  0  0  0  0  0  0  0  0  0  0  0
  133.7854  117.8117  128.5668 H   0  0  0  0  0  0  0  0  0  0  0  0
  133.6535  120.2709  128.4564 H   0  0  0  0  0  0  0  0  0  0  0  0
  132.2591  121.5391  130.1030 H   0  0  0  0  0  0  0  0  0  0  0  0
  127.2458  117.2712  132.1720 H   0  0  0  0  0  0  0  0  0  0  0  0
  128.3654  116.1693  131.2580 H   0  0  0  0  0  0  0  0  0  0  0  0
  126.1290  115.3126  133.1490 H   0  0  0  0  0  0  0  0  0  0  0  0
  126.1251  115.2152  131.3424 H   0  0  0  0  0  0  0  0  0  0  0  0
  128.9470  112.8765  133.4974 H   0  0  0  0  0  0  0  0  0  0  0  0
  129.5573  113.9788  132.2014 H   0  0  0  0  0  0  0  0  0  0  0  0
  128.1208  114.8529  134.7593 H   0  0  0  0  0  0  0  0  0  0  0  0
  129.8961  114.9532  134.4495 H   0  0  0  0  0  0  0  0  0  0  0  0
  126.8725  111.7717  133.1324 H   0  0  0  0  0  0  0  0  0  0  0  0
  125.5018  112.4389  132.8169 H   0  0  0  0  0  0  0  0  0  0  0  0
  128.0314  112.1894  130.8459 H   0  0  0  0  0  0  0  0  0  0  0  0
  126.8631  112.9294  130.1314 H   0  0  0  0  0  0  0  0  0  0  0  0
  127.2186  116.3463  135.5495 H   0  0  0  0  0  0  0  0  0  0  0  0
  1  2  2  0
  2  3  2  0
  2  4  1  0
  4  5  1  0
  5  6  1  0
  2  7  1  0
  7  8  1  0
  8  9  2  0
  9 10  1  0
 10 11  2  0
 11 12  1  0
 12 13  2  0
 13 14  1  0
 14 15  2  0
 15 16  1  0
 16 17  1  0
 17 18  1  0
 18 19  1  0
 19 20  1  0
 19 21  1  0
 19 22  1  0
 22 23  1  0
 15 24  1  0
 24 25  2  0
 25 26  1  0
 26 27  2  0
 27 28  1  0
 11 29  1  0
 29 30  1  0
 30 31  1  0
 31 32  1  0
 32 33  1  0
 33 34  1  0
 34 35  1  0
 33 36  1  0
 36 37  1  0
 29 38  2  0
 38  8  1  0
 28 12  1  0
 35 30  1  0
 27 14  1  0
 37 33  1  0
 23 16  1  0
  4 39  1  0
  4 40  1  0
  5 41  1  0
  5 42  1  0
  6 43  1  0
  7 44  1  0
  9 45  1  0
 10 46  1  0
 17 47  1  0
 17 48  1  0
 18 49  1  0
 18 50  1  0
 22 51  1  0
 22 52  1  0
 23 53  1  0
 23 54  1  0
 24 55  1  0
 25 56  1  0
 26 57  1  0
 31 58  1  0
 31 59  1  0
 32 60  1  0
 32 61  1  0
 34 62  1  0
 34 63  1  0
 35 64  1  0
 35 65  1  0
 36 66  1  0
 36 67  1  0
 37 68  1  0
 37 69  1  0
 38 70  1  0
M  END
$$$$

     RDKit          3D

 70 75  0  0  0  0  0  0  0  0999 V2000
  133.1770  113.0410  130.3350 O   0  0  0  0  0  0  0  0  0  0  0  0
  133.5190  113.0480  128.9270 S   0  0  0  0  0  6  0  0  0  0  0  0
  132.8430  112.1660  128.0010 O   0  0  0  0  0  0  0  0  0  0  0  0
  135.2800  112.8170  128.7850 C   0  0  0  0  0  0  0  0  0  0  0  0
  136.0370  113.5640  129.8590 C   0  0  0  0  0  0  0  0  0  0  0  0
  136.2370  114.9100  129.4340 O   0  0  0  0  0  0  0  0  0  0  0  0
  133.3100  114.6560  128.4330 N   0  0  0  0  0  0  0  0  0  0  0  0
  132.7420  115.5570  129.3830 C   0  0  0  0  0  0  0  0  0  0  0  0
  133.3040  116.8170  129.5440 C   0  0  0  0  0  0  0  0  0  0  0  0
  132.7270  117.7140  130.4420 C   0  0  0  0  0  0  0  0  0  0  0  0
  131.5830  117.3640  131.1870 C   0  0  0  0  0  0  0  0  0  0  0  0
  131.0620  118.3680  132.1260 C   0  0  0  0  0  0  0  0  0  0  0  0
  130.4570  118.0710  133.2560 N   0  0  0  0  0  0  0  0  0  0  0  0
  130.0410  119.2260  133.9190 C   0  0  0  0  0  0  0  0  0  0  0  0
  129.3920  119.2900  135.1950 C   0  0  0  0  0  0  0  0  0  0  0  0
  129.0260  118.1860  136.0250 N   0  0  0  0  0  0  0  0  0  0  0  0
  130.1000  117.6740  136.8950 C   0  0  0  0  0  0  0  0  0  0  0  0
  129.6610  116.3360  137.4700 C   0  0  0  0  0  0  0  0  0  0  0  0
  128.3440  116.5080  138.1940 C   0  0  0  0  0  0  0  0  0  0  0  0
  128.5360  117.2590  139.3110 F   0  0  0  0  0  0  0  0  0  0  0  0
  127.9100  115.2950  138.6300 F   0  0  0  0  0  0  0  0  0  0  0  0
  127.2640  117.1450  137.3460 C   0  0  0  0  0  0  0  0  0  0  0  0
  127.7720  118.4500  136.7560 C   0  0  0  0  0  0  0  0  0  0  0  0
  129.0530  120.5820  135.6690 C   0  0  0  0  0  0  0  0  0  0  0  0
  129.3420  121.7440  134.9600 C   0  0  0  0  0  0  0  0  0  0  0  0
  129.9840  121.6760  133.7290 C   0  0  0  0  0  0  0  0  0  0  0  0
  130.3210  120.4090  133.2280 C   0  0  0  0  0  0  0  0  0  0  0  0
  131.1010  120.0380  131.7390 S   0  0  0  0  0  0  0  0  0  0  0  0
  130.9860  116.0900  131.0000 C   0  0  0  0  0  0  0  0  0  0  0  0
  129.7790  115.7540  131.6470 N   0  0  0  0  0  0  0  0  0  0  0  0
  129.8150  114.7030  132.6840 C   0  0  0  0  0  0  0  0  0  0  0  0
  129.0620  113.4400  132.2570 C   0  0  0  0  0  0  0  0  0  0  0  0
  127.6140  113.7530  131.9160 C   0  0  0  0  0  0  0  0  0  0  0  0
  127.3870  115.1580  131.3840 C   0  0  0  0  0  0  0  0  0  0  0  0
  128.6460  115.6940  130.6940 C   0  0  0  0  0  0  0  0  0  0  0  0
  126.7620  112.6230  131.3740 C   0  0  0  0  0  0  0  0  0  0  0  0
  126.5160  113.1360  132.7610 C   0  0  0  0  0  0  0  0  0  0  0  0
  131.5910  115.2010  130.0910 C   0  0  0  0  0  0  0  0  0  0  0  0
  135.5057  111.7440  128.8724 H   0  0  0  0  0  0  0  0  0  0  0  0
  135.5970  113.2118  127.8085 H   0  0  0  0  0  0  0  0  0  0  0  0
  135.4570  113.5545  130.7936 H   0  0  0  0  0  0  0  0  0  0  0  0
  137.0096  113.0805  130.0332 H   0  0  0  0  0  0  0  0  0  0  0  0
  137.0450  115.2330  129.8710 H   0  0  0  0  0  0  0  0  0  0  0  0
  134.1870  114.9800  128.0180 H   0  0  0  0  0  0  0  0  0  0  0  0
  134.1961  117.1045  128.9683 H   0  0  0  0  0  0  0  0  0  0  0  0
  133.1721  118.7116  130.5712 H   0  0  0  0  0  0  0  0  0  0  0  0
  131.0209  117.5412  136.3082 H   0  0  0  0  0  0  0  0  0  0  0  0
  130.2967  118.3870  137.7092 H   0  0  0  0  0  0  0  0  0  0  0  0
  129.5390  115.6083  136.6542 H   0  0  0  0  0  0  0  0  0  0  0  0
  130.4228  115.9712  138.1747 H   0  0  0  0  0  0  0  0  0  0  0  0
  126.9881  116.4593  136.5313 H   0  0  0  0  0  0  0  0  0  0  0  0
  126.3842  117.3496  137.9738 H   0  0  0  0  0  0  0  0  0  0  0  0
  127.0209  118.8603  136.0651 H   0  0  0  0  0  0  0  0  0  0  0  0
  127.9549  119.1773  137.5607 H   0  0  0  0  0  0  0  0  0  0  0  0
  128.5399  120.6699  136.6380 H   0  0  0  0  0  0  0  0  0  0  0  0
  129.0606  122.7225  135.3763 H   0  0  0  0  0  0  0  0  0  0  0  0
  130.2212  122.5893  133.1636 H   0  0  0  0  0  0  0  0  0  0  0  0
  130.8640  114.4390  132.8839 H   0  0  0  0  0  0  0  0  0  0  0  0
  129.3226  115.1006  133.5837 H   0  0  0  0  0  0  0  0  0  0  0  0
  129.5544  113.0105  131.3721 H   0  0  0  0  0  0  0  0  0  0  0  0
  129.0766  112.7258  133.0935 H   0  0  0  0  0  0  0  0  0  0  0  0
  126.5599  115.1389  130.6590 H   0  0  0  0  0  0  0  0  0  0  0  0
  127.1430  115.8178  132.2297 H   0  0  0  0  0  0  0  0  0  0  0  0
  128.9112  115.0290  129.8589 H   0  0  0  0  0  0  0  0  0  0  0  0
  128.4414  116.7091  130.3228 H   0  0  0  0  0  0  0  0  0  0  0  0
  126.0296  112.8212  130.5776 H   0  0  0  0  0  0  0  0  0  0  0  0
  126.9707  111.6347  130.9384 H   0  0  0  0  0  0  0  0  0  0  0  0
  125.6037  113.7101  132.9803 H   0  0  0  0  0  0  0  0  0  0  0  0
  126.4703  112.6790  133.7605 H   0  0  0  0  0  0  0  0  0  0  0  0
  131.1486  114.2060  129.9350 H   0  0  0  0  0  0  0  0  0  0  0  0
  1  2  2  0
  2  3  2  0
  2  4  1  0
  4  5  1  0
  5  6  1  0
  2  7  1  0
  7  8  1  0
  8  9  2  0
  9 10  1  0
 10 11  2  0
 11 12  1  0
 12 13  2  0
 13 14  1  0
 14 15  2  0
 15 16  1  0
 16 17  1  0
 17 18  1  0
 18 19  1  0
 19 20  1  0
 19 21  1  0
 19 22  1  0
 22 23  1  0
 15 24  1  0
 24 25  2  0
 25 26  1  0
 26 27  2  0
 27 28  1  0
 11 29  1  0
 29 30  1  0
 30 31  1  0
 31 32  1  0
 32 33  1  0
 33 34  1  0
 34 35  1  0
 33 36  1  0
 36 37  1  0
 29 38  2  0
 38  8  1  0
 28 12  1  0
 35 30  1  0
 27 14  1  0
 37 33  1  0
 23 16  1  0
  4 39  1  0
  4 40  1  0
  5 41  1  0
  5 42  1  0
  6 43  1  0
  7 44  1  0
  9 45  1  0
 10 46  1  0
 17 47  1  0
 17 48  1  0
 18 49  1  0
 18 50  1  0
 22 51  1  0
 22 52  1  0
 23 53  1  0
 23 54  1  0
 24 55  1  0
 25 56  1  0
 26 57  1  0
 31 58  1  0
 31 59  1  0
 32 60  1  0
 32 61  1  0
 34 62  1  0
 34 63  1  0
 35 64  1  0
 35 65  1  0
 36 66  1  0
 36 67  1  0
 37 68  1  0
 37 69  1  0
 38 70  1  0
M  END
$$$$

     RDKit          3D

 70 75  0  0  0  0  0  0  0  0999 V2000
  133.3170  112.4590  129.4250 O   0  0  0  0  0  0  0  0  0  0  0  0
  134.1980  113.2640  128.6040 S   0  0  0  0  0  6  0  0  0  0  0  0
  134.8820  112.6840  127.4690 O   0  0  0  0  0  0  0  0  0  0  0  0
  135.3880  114.0470  129.6740 C   0  0  0  0  0  0  0  0  0  0  0  0
  136.1780  113.0370  130.4760 C   0  0  0  0  0  0  0  0  0  0  0  0
  136.3310  111.8480  129.7040 O   0  0  0  0  0  0  0  0  0  0  0  0
  133.2450  114.5670  128.0850 N   0  0  0  0  0  0  0  0  0  0  0  0
  132.7680  115.4610  129.0910 C   0  0  0  0  0  0  0  0  0  0  0  0
  133.3680  116.7060  129.2320 C   0  0  0  0  0  0  0  0  0  0  0  0
  132.8780  117.5970  130.1860 C   0  0  0  0  0  0  0  0  0  0  0  0
  131.7840  117.2570  131.0070 C   0  0  0  0  0  0  0  0  0  0  0  0
  131.3560  118.2530  132.0000 C   0  0  0  0  0  0  0  0  0  0  0  0
  130.6490  117.9640  133.0710 N   0  0  0  0  0  0  0  0  0  0  0  0
  130.3620  119.1140  133.8070 C   0  0  0  0  0  0  0  0  0  0  0  0
  129.6540  119.1760  135.0500 C   0  0  0  0  0  0  0  0  0  0  0  0
  129.0860  118.0780  135.7680 N   0  0  0  0  0  0  0  0  0  0  0  0
  128.0460  118.4410  136.7470 C   0  0  0  0  0  0  0  0  0  0  0  0
  127.7720  117.2340  137.6310 C   0  0  0  0  0  0  0  0  0  0  0  0
  127.3850  116.0550  136.7650 C   0  0  0  0  0  0  0  0  0  0  0  0
  126.1700  116.2870  136.1990 F   0  0  0  0  0  0  0  0  0  0  0  0
  127.2260  114.9560  137.5500 F   0  0  0  0  0  0  0  0  0  0  0  0
  128.3900  115.7460  135.6770 C   0  0  0  0  0  0  0  0  0  0  0  0
  128.6660  116.9960  134.8580 C   0  0  0  0  0  0  0  0  0  0  0  0
  129.4740  120.4650  135.6130 C   0  0  0  0  0  0  0  0  0  0  0  0
  129.9670  121.6220  135.0170 C   0  0  0  0  0  0  0  0  0  0  0  0
  130.6650  121.5530  133.8170 C   0  0  0  0  0  0  0  0  0  0  0  0
  130.8480  120.2910  133.2300 C   0  0  0  0  0  0  0  0  0  0  0  0
  131.6550  119.9230  131.7540 S   0  0  0  0  0  0  0  0  0  0  0  0
  131.1480  115.9990  130.8420 C   0  0  0  0  0  0  0  0  0  0  0  0
  129.9840  115.6750  131.5700 N   0  0  0  0  0  0  0  0  0  0  0  0
  130.0170  114.4820  132.4400 C   0  0  0  0  0  0  0  0  0  0  0  0
  129.0990  113.3670  131.9300 C   0  0  0  0  0  0  0  0  0  0  0  0
  127.6640  113.8510  131.8040 C   0  0  0  0  0  0  0  0  0  0  0  0
  127.5290  115.3350  131.5020 C   0  0  0  0  0  0  0  0  0  0  0  0
  128.7610  115.8570  130.7540 C   0  0  0  0  0  0  0  0  0  0  0  0
  126.6500  112.8930  131.2120 C   0  0  0  0  0  0  0  0  0  0  0  0
  126.6000  113.2130  132.6760 C   0  0  0  0  0  0  0  0  0  0  0  0
  131.6640  115.1150  129.8750 C   0  0  0  0  0  0  0  0  0  0  0  0
  136.0847  114.6362  129.0596 H   0  0  0  0  0  0  0  0  0  0  0  0
  134.8404  114.6887  130.3799 H   0  0  0  0  0  0  0  0  0  0  0  0
  137.1685  113.4505  130.7164 H   0  0  0  0  0  0  0  0  0  0  0  0
  135.6460  112.8070  131.4109 H   0  0  0  0  0  0  0  0  0  0  0  0
  136.7490  111.1840  130.2780 H   0  0  0  0  0  0  0  0  0  0  0  0
  133.7250  115.0260  127.3080 H   0  0  0  0  0  0  0  0  0  0  0  0
  134.2215  116.9862  128.5971 H   0  0  0  0  0  0  0  0  0  0  0  0
  133.3535  118.5824  130.2999 H   0  0  0  0  0  0  0  0  0  0  0  0
  128.3952  119.2815  137.3647 H   0  0  0  0  0  0  0  0  0  0  0  0
  127.1258  118.7420  136.2248 H   0  0  0  0  0  0  0  0  0  0  0  0
  128.6771  116.9864  138.2051 H   0  0  0  0  0  0  0  0  0  0  0  0
  126.9508  117.4656  138.3252 H   0  0  0  0  0  0  0  0  0  0  0  0
  129.3269  115.3955  136.1347 H   0  0  0  0  0  0  0  0  0  0  0  0
  127.9826  114.9644  135.0189 H   0  0  0  0  0  0  0  0  0  0  0  0
  129.4665  116.7926  134.1314 H   0  0  0  0  0  0  0  0  0  0  0  0
  127.7569  117.2956  134.3159 H   0  0  0  0  0  0  0  0  0  0  0  0
  128.9218  120.5541  136.5602 H   0  0  0  0  0  0  0  0  0  0  0  0
  129.8032  122.5973  135.4987 H   0  0  0  0  0  0  0  0  0  0  0  0
  131.0627  122.4614  133.3409 H   0  0  0  0  0  0  0  0  0  0  0  0
  131.0482  114.1012  132.4797 H   0  0  0  0  0  0  0  0  0  0  0  0
  129.6617  114.7818  133.4369 H   0  0  0  0  0  0  0  0  0  0  0  0
  129.4532  113.0338  130.9433 H   0  0  0  0  0  0  0  0  0  0  0  0
  129.1246  112.5373  132.6518 H   0  0  0  0  0  0  0  0  0  0  0  0
  126.6358  115.4959  130.8805 H   0  0  0  0  0  0  0  0  0  0  0  0
  127.4394  115.8798  132.4534 H   0  0  0  0  0  0  0  0  0  0  0  0
  128.8713  115.3041  129.8095 H   0  0  0  0  0  0  0  0  0  0  0  0
  128.6253  116.9301  130.5539 H   0  0  0  0  0  0  0  0  0  0  0  0
  125.8649  113.2707  130.5405 H   0  0  0  0  0  0  0  0  0  0  0  0
  126.7107  111.9664  130.6224 H   0  0  0  0  0  0  0  0  0  0  0  0
  125.7785  113.8252  133.0765 H   0  0  0  0  0  0  0  0  0  0  0  0
  126.6092  112.6179  133.6011 H   0  0  0  0  0  0  0  0  0  0  0  0
  131.1889  114.1330  129.7339 H   0  0  0  0  0  0  0  0  0  0  0  0
  1  2  2  0
  2  3  2  0
  2  4  1  0
  4  5  1  0
  5  6  1  0
  2  7  1  0
  7  8  1  0
  8  9  2  0
  9 10  1  0
 10 11  2  0
 11 12  1  0
 12 13  2  0
 13 14  1  0
 14 15  2  0
 15 16  1  0
 16 17  1  0
 17 18  1  0
 18 19  1  0
 19 20  1  0
 19 21  1  0
 19 22  1  0
 22 23  1  0
 15 24  1  0
 24 25  2  0
 25 26  1  0
 26 27  2  0
 27 28  1  0
 11 29  1  0
 29 30  1  0
 30 31  1  0
 31 32  1  0
 32 33  1  0
 33 34  1  0
 34 35  1  0
 33 36  1  0
 36 37  1  0
 29 38  2  0
 38  8  1  0
 28 12  1  0
 35 30  1  0
 27 14  1  0
 37 33  1  0
 23 16  1  0
  4 39  1  0
  4 40  1  0
  5 41  1  0
  5 42  1  0
  6 43  1  0
  7 44  1  0
  9 45  1  0
 10 46  1  0
 17 47  1  0
 17 48  1  0
 18 49  1  0
 18 50  1  0
 22 51  1  0
 22 52  1  0
 23 53  1  0
 23 54  1  0
 24 55  1  0
 25 56  1  0
 26 57  1  0
 31 58  1  0
 31 59  1  0
 32 60  1  0
 32 61  1  0
 34 62  1  0
 34 63  1  0
 35 64  1  0
 35 65  1  0
 36 66  1  0
 36 67  1  0
 37 68  1  0
 37 69  1  0
 38 70  1  0
M  END
$$$$

     RDKit          3D

 70 75  0  0  0  0  0  0  0  0999 V2000
  129.3430  116.9800  138.3780 O   0  0  0  0  0  0  0  0  0  0  0  0
  128.1150  117.5380  138.9050 S   0  0  0  0  0  6  0  0  0  0  0  0
  128.1340  118.3750  140.0850 O   0  0  0  0  0  0  0  0  0  0  0  0
  126.9590  116.2040  139.1470 C   0  0  0  0  0  0  0  0  0  0  0  0
  126.6710  115.4660  137.8590 C   0  0  0  0  0  0  0  0  0  0  0  0
  127.8450  114.7680  137.4520 O   0  0  0  0  0  0  0  0  0  0  0  0
  127.4330  118.3970  137.6130 N   0  0  0  0  0  0  0  0  0  0  0  0
  128.2280  118.5340  136.4350 C   0  0  0  0  0  0  0  0  0  0  0  0
  129.0560  119.6410  136.3010 C   0  0  0  0  0  0  0  0  0  0  0  0
  129.8640  119.7580  135.1700 C   0  0  0  0  0  0  0  0  0  0  0  0
  129.8550  118.7720  134.1640 C   0  0  0  0  0  0  0  0  0  0  0  0
  130.7230  118.9960  132.9990 C   0  0  0  0  0  0  0  0  0  0  0  0
  131.0710  118.0510  132.1510 N   0  0  0  0  0  0  0  0  0  0  0  0
  131.9280  118.5510  131.1700 C   0  0  0  0  0  0  0  0  0  0  0  0
  132.4710  117.8240  130.0610 C   0  0  0  0  0  0  0  0  0  0  0  0
  132.2580  116.4440  129.7560 N   0  0  0  0  0  0  0  0  0  0  0  0
  133.4710  115.6890  129.3930 C   0  0  0  0  0  0  0  0  0  0  0  0
  133.0510  114.3510  128.8050 C   0  0  0  0  0  0  0  0  0  0  0  0
  132.1730  113.6200  129.7980 C   0  0  0  0  0  0  0  0  0  0  0  0
  132.9180  113.2480  130.8730 F   0  0  0  0  0  0  0  0  0  0  0  0
  131.7270  112.4650  129.2350 F   0  0  0  0  0  0  0  0  0  0  0  0
  130.9870  114.4310  130.2710 C   0  0  0  0  0  0  0  0  0  0  0  0
  131.4570  115.7760  130.8000 C   0  0  0  0  0  0  0  0  0  0  0  0
  133.3290  118.5430  129.1920 C   0  0  0  0  0  0  0  0  0  0  0  0
  133.6300  119.8890  129.3740 C   0  0  0  0  0  0  0  0  0  0  0  0
  133.0890  120.5920  130.4450 C   0  0  0  0  0  0  0  0  0  0  0  0
  132.2450  119.9030  131.3290 C   0  0  0  0  0  0  0  0  0  0  0  0
  131.4580  120.5210  132.7310 S   0  0  0  0  0  0  0  0  0  0  0  0
  129.0350  117.6230  134.3140 C   0  0  0  0  0  0  0  0  0  0  0  0
  129.0880  116.5680  133.3800 N   0  0  0  0  0  0  0  0  0  0  0  0
  128.1560  116.6050  132.2350 C   0  0  0  0  0  0  0  0  0  0  0  0
  127.1090  115.4890  132.3030 C   0  0  0  0  0  0  0  0  0  0  0  0
  127.7680  114.1210  132.3640 C   0  0  0  0  0  0  0  0  0  0  0  0
  129.1330  114.1140  133.0320 C   0  0  0  0  0  0  0  0  0  0  0  0
  129.2540  115.2550  134.0470 C   0  0  0  0  0  0  0  0  0  0  0  0
  126.8650  112.9160  132.5410 C   0  0  0  0  0  0  0  0  0  0  0  0
  127.5400  113.1500  131.2220 C   0  0  0  0  0  0  0  0  0  0  0  0
  128.2250  117.5310  135.4620 C   0  0  0  0  0  0  0  0  0  0  0  0
  127.3806  115.4960  139.8757 H   0  0  0  0  0  0  0  0  0  0  0  0
  126.0144  116.6338  139.5119 H   0  0  0  0  0  0  0  0  0  0  0  0
  125.8526  114.7488  138.0199 H   0  0  0  0  0  0  0  0  0  0  0  0
  126.3749  116.1822  137.0784 H   0  0  0  0  0  0  0  0  0  0  0  0
  128.4170  114.6840  138.2350 H   0  0  0  0  0  0  0  0  0  0  0  0
  126.4930  118.0310  137.4460 H   0  0  0  0  0  0  0  0  0  0  0  0
  129.0744  120.4181  137.0793 H   0  0  0  0  0  0  0  0  0  0  0  0
  130.5192  120.6349  135.0619 H   0  0  0  0  0  0  0  0  0  0  0  0
  134.0512  116.2550  128.6494 H   0  0  0  0  0  0  0  0  0  0  0  0
  134.0951  115.5287  130.2845 H   0  0  0  0  0  0  0  0  0  0  0  0
  132.4906  114.5190  127.8735 H   0  0  0  0  0  0  0  0  0  0  0  0
  133.9447  113.7469  128.5898 H   0  0  0  0  0  0  0  0  0  0  0  0
  130.2962  114.5912  129.4301 H   0  0  0  0  0  0  0  0  0  0  0  0
  130.4733  113.8851  131.0760 H   0  0  0  0  0  0  0  0  0  0  0  0
  130.5861  116.3986  131.0528 H   0  0  0  0  0  0  0  0  0  0  0  0
  132.0676  115.6297  131.7032 H   0  0  0  0  0  0  0  0  0  0  0  0
  133.7760  118.0143  128.3372 H   0  0  0  0  0  0  0  0  0  0  0  0
  134.2997  120.4001  128.6667 H   0  0  0  0  0  0  0  0  0  0  0  0
  133.3163  121.6578  130.5948 H   0  0  0  0  0  0  0  0  0  0  0  0
  127.6388  117.5758  132.2308 H   0  0  0  0  0  0  0  0  0  0  0  0
  128.7442  116.4599  131.3168 H   0  0  0  0  0  0  0  0  0  0  0  0
  126.4916  115.6304  133.2023 H   0  0  0  0  0  0  0  0  0  0  0  0
  126.4889  115.5370  131.3957 H   0  0  0  0  0  0  0  0  0  0  0  0
  129.2745  113.1545  133.5510 H   0  0  0  0  0  0  0  0  0  0  0  0
  129.9024  114.2509  132.2579 H   0  0  0  0  0  0  0  0  0  0  0  0
  128.4754  115.1391  134.8153 H   0  0  0  0  0  0  0  0  0  0  0  0
  130.2524  115.2153  134.5070 H   0  0  0  0  0  0  0  0  0  0  0  0
  127.1843  112.0799  133.1804 H   0  0  0  0  0  0  0  0  0  0  0  0
  125.8241  112.7675  132.8642 H   0  0  0  0  0  0  0  0  0  0  0  0
  128.3534  112.4852  130.8959 H   0  0  0  0  0  0  0  0  0  0  0  0
  127.1973  113.2435  130.1809 H   0  0  0  0  0  0  0  0  0  0  0  0
  127.5770  116.6522  135.5956 H   0  0  0  0  0  0  0  0  0  0  0  0
  1  2  2  0
  2  3  2  0
  2  4  1  0
  4  5  1  0
  5  6  1  0
  2  7  1  0
  7  8  1  0
  8  9  2  0
  9 10  1  0
 10 11  2  0
 11 12  1  0
 12 13  2  0
 13 14  1  0
 14 15  2  0
 15 16  1  0
 16 17  1  0
 17 18  1  0
 18 19  1  0
 19 20  1  0
 19 21  1  0
 19 22  1  0
 22 23  1  0
 15 24  1  0
 24 25  2  0
 25 26  1  0
 26 27  2  0
 27 28  1  0
 11 29  1  0
 29 30  1  0
 30 31  1  0
 31 32  1  0
 32 33  1  0
 33 34  1  0
 34 35  1  0
 33 36  1  0
 36 37  1  0
 29 38  2  0
 38  8  1  0
 28 12  1  0
 35 30  1  0
 27 14  1  0
 37 33  1  0
 23 16  1  0
  4 39  1  0
  4 40  1  0
  5 41  1  0
  5 42  1  0
  6 43  1  0
  7 44  1  0
  9 45  1  0
 10 46  1  0
 17 47  1  0
 17 48  1  0
 18 49  1  0
 18 50  1  0
 22 51  1  0
 22 52  1  0
 23 53  1  0
 23 54  1  0
 24 55  1  0
 25 56  1  0
 26 57  1  0
 31 58  1  0
 31 59  1  0
 32 60  1  0
 32 61  1  0
 34 62  1  0
 34 63  1  0
 35 64  1  0
 35 65  1  0
 36 66  1  0
 36 67  1  0
 37 68  1  0
 37 69  1  0
 38 70  1  0
M  END
$$$$

     RDKit          3D

 70 75  0  0  0  0  0  0  0  0999 V2000
  135.6660  114.5990  129.5590 O   0  0  0  0  0  0  0  0  0  0  0  0
  134.4460  113.8640  129.2940 S   0  0  0  0  0  6  0  0  0  0  0  0
  133.8030  113.1020  130.3430 O   0  0  0  0  0  0  0  0  0  0  0  0
  134.7310  112.8080  127.8880 C   0  0  0  0  0  0  0  0  0  0  0  0
  133.5430  112.7810  126.9520 C   0  0  0  0  0  0  0  0  0  0  0  0
  132.4950  112.0250  127.5540 O   0  0  0  0  0  0  0  0  0  0  0  0
  133.3630  115.0170  128.6860 N   0  0  0  0  0  0  0  0  0  0  0  0
  132.7280  115.8740  129.6350 C   0  0  0  0  0  0  0  0  0  0  0  0
  133.2130  117.1630  129.8160 C   0  0  0  0  0  0  0  0  0  0  0  0
  132.5710  118.0160  130.7120 C   0  0  0  0  0  0  0  0  0  0  0  0
  131.4380  117.5920  131.4360 C   0  0  0  0  0  0  0  0  0  0  0  0
  130.8460  118.5550  132.3760 C   0  0  0  0  0  0  0  0  0  0  0  0
  130.2590  118.2130  133.5030 N   0  0  0  0  0  0  0  0  0  0  0  0
  129.7610  119.3340  134.1680 C   0  0  0  0  0  0  0  0  0  0  0  0
  129.1040  119.3490  135.4410 C   0  0  0  0  0  0  0  0  0  0  0  0
  128.8120  118.2190  136.2670 N   0  0  0  0  0  0  0  0  0  0  0  0
  128.3050  118.5410  137.6120 C   0  0  0  0  0  0  0  0  0  0  0  0
  128.3400  117.2790  138.4580 C   0  0  0  0  0  0  0  0  0  0  0  0
  127.5450  116.1900  137.7700 C   0  0  0  0  0  0  0  0  0  0  0  0
  126.2250  116.5160  137.7840 F   0  0  0  0  0  0  0  0  0  0  0  0
  127.6520  115.0380  138.4850 F   0  0  0  0  0  0  0  0  0  0  0  0
  127.9800  115.9320  136.3450 C   0  0  0  0  0  0  0  0  0  0  0  0
  127.9760  117.2320  135.5580 C   0  0  0  0  0  0  0  0  0  0  0  0
  128.6740  120.6130  135.9180 C   0  0  0  0  0  0  0  0  0  0  0  0
  128.8840  121.7940  135.2130 C   0  0  0  0  0  0  0  0  0  0  0  0
  129.5340  121.7740  133.9840 C   0  0  0  0  0  0  0  0  0  0  0  0
  129.9600  120.5350  133.4810 C   0  0  0  0  0  0  0  0  0  0  0  0
  130.7700  120.2240  131.9940 S   0  0  0  0  0  0  0  0  0  0  0  0
  130.9200  116.2870  131.2290 C   0  0  0  0  0  0  0  0  0  0  0  0
  129.7260  115.8740  131.8540 N   0  0  0  0  0  0  0  0  0  0  0  0
  129.7850  114.7230  132.7770 C   0  0  0  0  0  0  0  0  0  0  0  0
  129.0360  113.5030  132.2320 C   0  0  0  0  0  0  0  0  0  0  0  0
  127.5820  113.8350  131.9450 C   0  0  0  0  0  0  0  0  0  0  0  0
  127.3350  115.2860  131.5630 C   0  0  0  0  0  0  0  0  0  0  0  0
  128.5800  115.9020  130.9150 C   0  0  0  0  0  0  0  0  0  0  0  0
  126.7310  112.7590  131.3000 C   0  0  0  0  0  0  0  0  0  0  0  0
  126.5010  113.1250  132.7360 C   0  0  0  0  0  0  0  0  0  0  0  0
  131.5900  115.4440  130.3220 C   0  0  0  0  0  0  0  0  0  0  0  0
  135.6088  113.1778  127.3378 H   0  0  0  0  0  0  0  0  0  0  0  0
  134.8964  111.7854  128.2580 H   0  0  0  0  0  0  0  0  0  0  0  0
  133.1967  113.8083  126.7659 H   0  0  0  0  0  0  0  0  0  0  0  0
  133.8329  112.3192  125.9967 H   0  0  0  0  0  0  0  0  0  0  0  0
  132.4130  112.3310  128.4750 H   0  0  0  0  0  0  0  0  0  0  0  0
  133.8190  115.5090  127.9140 H   0  0  0  0  0  0  0  0  0  0  0  0
  134.0957  117.5074  129.2573 H   0  0  0  0  0  0  0  0  0  0  0  0
  132.9546  119.0367  130.8566 H   0  0  0  0  0  0  0  0  0  0  0  0
  128.9390  119.3133  138.0720 H   0  0  0  0  0  0  0  0  0  0  0  0
  127.2745  118.9199  137.5445 H   0  0  0  0  0  0  0  0  0  0  0  0
  129.3821  116.9496  138.5826 H   0  0  0  0  0  0  0  0  0  0  0  0
  127.9012  117.4862  139.4452 H   0  0  0  0  0  0  0  0  0  0  0  0
  128.9954  115.5090  136.3448 H   0  0  0  0  0  0  0  0  0  0  0  0
  127.2812  115.2235  135.8763 H   0  0  0  0  0  0  0  0  0  0  0  0
  128.3843  117.0564  134.5518 H   0  0  0  0  0  0  0  0  0  0  0  0
  126.9472  117.6104  135.4663 H   0  0  0  0  0  0  0  0  0  0  0  0
  128.1528  120.6620  136.8854 H   0  0  0  0  0  0  0  0  0  0  0  0
  128.5336  122.7495  135.6305 H   0  0  0  0  0  0  0  0  0  0  0  0
  129.7094  122.7031  133.4218 H   0  0  0  0  0  0  0  0  0  0  0  0
  130.8387  114.4498  132.9351 H   0  0  0  0  0  0  0  0  0  0  0  0
  129.3022  115.0216  133.7192 H   0  0  0  0  0  0  0  0  0  0  0  0
  129.5190  113.1717  131.3009 H   0  0  0  0  0  0  0  0  0  0  0  0
  129.0686  112.7066  132.9901 H   0  0  0  0  0  0  0  0  0  0  0  0
  126.4979  115.3332  130.8509 H   0  0  0  0  0  0  0  0  0  0  0  0
  127.0970  115.8533  132.4749 H   0  0  0  0  0  0  0  0  0  0  0  0
  128.8385  115.3290  130.0123 H   0  0  0  0  0  0  0  0  0  0  0  0
  128.3622  116.9479  130.6531 H   0  0  0  0  0  0  0  0  0  0  0  0
  125.9861  113.0315  130.5379 H   0  0  0  0  0  0  0  0  0  0  0  0
  126.9408  111.8227  130.7622 H   0  0  0  0  0  0  0  0  0  0  0  0
  125.5877  113.6655  133.0253 H   0  0  0  0  0  0  0  0  0  0  0  0
  126.4728  112.5673  133.6837 H   0  0  0  0  0  0  0  0  0  0  0  0
  131.2097  114.4261  130.1508 H   0  0  0  0  0  0  0  0  0  0  0  0
  1  2  2  0
  2  3  2  0
  2  4  1  0
  4  5  1  0
  5  6  1  0
  2  7  1  0
  7  8  1  0
  8  9  2  0
  9 10  1  0
 10 11  2  0
 11 12  1  0
 12 13  2  0
 13 14  1  0
 14 15  2  0
 15 16  1  0
 16 17  1  0
 17 18  1  0
 18 19  1  0
 19 20  1  0
 19 21  1  0
 19 22  1  0
 22 23  1  0
 15 24  1  0
 24 25  2  0
 25 26  1  0
 26 27  2  0
 27 28  1  0
 11 29  1  0
 29 30  1  0
 30 31  1  0
 31 32  1  0
 32 33  1  0
 33 34  1  0
 34 35  1  0
 33 36  1  0
 36 37  1  0
 29 38  2  0
 38  8  1  0
 28 12  1  0
 35 30  1  0
 27 14  1  0
 37 33  1  0
 23 16  1  0
  4 39  1  0
  4 40  1  0
  5 41  1  0
  5 42  1  0
  6 43  1  0
  7 44  1  0
  9 45  1  0
 10 46  1  0
 17 47  1  0
 17 48  1  0
 18 49  1  0
 18 50  1  0
 22 51  1  0
 22 52  1  0
 23 53  1  0
 23 54  1  0
 24 55  1  0
 25 56  1  0
 26 57  1  0
 31 58  1  0
 31 59  1  0
 32 60  1  0
 32 61  1  0
 34 62  1  0
 34 63  1  0
 35 64  1  0
 35 65  1  0
 36 66  1  0
 36 67  1  0
 37 68  1  0
 37 69  1  0
 38 70  1  0
M  END
$$$$

     RDKit          3D

 70 75  0  0  0  0  0  0  0  0999 V2000
  134.5210  113.3040  127.7110 O   0  0  0  0  0  0  0  0  0  0  0  0
  134.3730  114.1730  128.8600 S   0  0  0  0  0  6  0  0  0  0  0  0
  135.5280  114.8040  129.4600 O   0  0  0  0  0  0  0  0  0  0  0  0
  133.4690  113.2850  130.1120 C   0  0  0  0  0  0  0  0  0  0  0  0
  134.0940  111.9410  130.4140 C   0  0  0  0  0  0  0  0  0  0  0  0
  135.5120  112.0650  130.3560 O   0  0  0  0  0  0  0  0  0  0  0  0
  133.2680  115.3620  128.3710 N   0  0  0  0  0  0  0  0  0  0  0  0
  132.6730  116.1550  129.3990 C   0  0  0  0  0  0  0  0  0  0  0  0
  133.1410  117.4440  129.6180 C   0  0  0  0  0  0  0  0  0  0  0  0
  132.5360  118.2350  130.5930 C   0  0  0  0  0  0  0  0  0  0  0  0
  131.4560  117.7500  131.3580 C   0  0  0  0  0  0  0  0  0  0  0  0
  130.9000  118.6490  132.3790 C   0  0  0  0  0  0  0  0  0  0  0  0
  130.1960  118.2400  133.4120 N   0  0  0  0  0  0  0  0  0  0  0  0
  129.7720  119.3190  134.1880 C   0  0  0  0  0  0  0  0  0  0  0  0
  129.0260  119.2510  135.4090 C   0  0  0  0  0  0  0  0  0  0  0  0
  128.5540  118.0690  136.0580 N   0  0  0  0  0  0  0  0  0  0  0  0
  127.8410  117.1180  135.1870 C   0  0  0  0  0  0  0  0  0  0  0  0
  127.1430  116.0880  136.0620 C   0  0  0  0  0  0  0  0  0  0  0  0
  128.1610  115.4200  136.9600 C   0  0  0  0  0  0  0  0  0  0  0  0
  128.9930  114.6500  136.2080 F   0  0  0  0  0  0  0  0  0  0  0  0
  127.5220  114.5640  137.8020 F   0  0  0  0  0  0  0  0  0  0  0  0
  128.9840  116.3940  137.7740 C   0  0  0  0  0  0  0  0  0  0  0  0
  129.6160  117.4290  136.8580 C   0  0  0  0  0  0  0  0  0  0  0  0
  128.6990  120.4870  136.0220 C   0  0  0  0  0  0  0  0  0  0  0  0
  129.0870  121.7150  135.4940 C   0  0  0  0  0  0  0  0  0  0  0  0
  129.8220  121.7730  134.3160 C   0  0  0  0  0  0  0  0  0  0  0  0
  130.1500  120.5660  133.6800 C   0  0  0  0  0  0  0  0  0  0  0  0
  131.0320  120.3510  132.2170 S   0  0  0  0  0  0  0  0  0  0  0  0
  130.9530  116.4460  131.1130 C   0  0  0  0  0  0  0  0  0  0  0  0
  129.8050  115.9740  131.7830 N   0  0  0  0  0  0  0  0  0  0  0  0
  129.9450  114.7910  132.6550 C   0  0  0  0  0  0  0  0  0  0  0  0
  129.2020  113.5710  132.1030 C   0  0  0  0  0  0  0  0  0  0  0  0
  127.7250  113.8710  131.9050 C   0  0  0  0  0  0  0  0  0  0  0  0
  127.4190  115.3270  131.5940 C   0  0  0  0  0  0  0  0  0  0  0  0
  128.6100  116.0040  130.9070 C   0  0  0  0  0  0  0  0  0  0  0  0
  126.8710  112.7950  131.2640 C   0  0  0  0  0  0  0  0  0  0  0  0
  126.7080  113.1000  132.7240 C   0  0  0  0  0  0  0  0  0  0  0  0
  131.5850  115.6650  130.1260 C   0  0  0  0  0  0  0  0  0  0  0  0
  133.4549  113.8856  131.0335 H   0  0  0  0  0  0  0  0  0  0  0  0
  132.4500  113.1100  129.7365 H   0  0  0  0  0  0  0  0  0  0  0  0
  133.7934  111.6122  131.4198 H   0  0  0  0  0  0  0  0  0  0  0  0
  133.7554  111.1995  129.6754 H   0  0  0  0  0  0  0  0  0  0  0  0
  135.8870  111.3260  130.8670 H   0  0  0  0  0  0  0  0  0  0  0  0
  133.6940  115.9030  127.6160 H   0  0  0  0  0  0  0  0  0  0  0  0
  133.9816  117.8371  129.0273 H   0  0  0  0  0  0  0  0  0  0  0  0
  132.9077  119.2553  130.7686 H   0  0  0  0  0  0  0  0  0  0  0  0
  127.0963  117.6561  134.5821 H   0  0  0  0  0  0  0  0  0  0  0  0
  128.5531  116.6184  134.5137 H   0  0  0  0  0  0  0  0  0  0  0  0
  126.3805  116.5864  136.6786 H   0  0  0  0  0  0  0  0  0  0  0  0
  126.6610  115.3311  135.4258 H   0  0  0  0  0  0  0  0  0  0  0  0
  128.3342  116.9004  138.5029 H   0  0  0  0  0  0  0  0  0  0  0  0
  129.7776  115.8448  138.3018 H   0  0  0  0  0  0  0  0  0  0  0  0
  130.1334  118.1895  137.4612 H   0  0  0  0  0  0  0  0  0  0  0  0
  130.3439  116.9430  136.1917 H   0  0  0  0  0  0  0  0  0  0  0  0
  128.1143  120.4749  136.9537 H   0  0  0  0  0  0  0  0  0  0  0  0
  128.8103  122.6450  136.0122 H   0  0  0  0  0  0  0  0  0  0  0  0
  130.1379  122.7384  133.8938 H   0  0  0  0  0  0  0  0  0  0  0  0
  131.0129  114.5433  132.7464 H   0  0  0  0  0  0  0  0  0  0  0  0
  129.5051  115.0392  133.6322 H   0  0  0  0  0  0  0  0  0  0  0  0
  129.6438  113.2890  131.1359 H   0  0  0  0  0  0  0  0  0  0  0  0
  129.2966  112.7482  132.8269 H   0  0  0  0  0  0  0  0  0  0  0  0
  126.5443  115.3766  130.9289 H   0  0  0  0  0  0  0  0  0  0  0  0
  127.2149  115.8518  132.5390 H   0  0  0  0  0  0  0  0  0  0  0  0
  128.8356  115.4740  129.9699 H   0  0  0  0  0  0  0  0  0  0  0  0
  128.3497  117.0523  130.6988 H   0  0  0  0  0  0  0  0  0  0  0  0
  126.0791  113.0735  130.5532 H   0  0  0  0  0  0  0  0  0  0  0  0
  127.0777  111.8862  130.6798 H   0  0  0  0  0  0  0  0  0  0  0  0
  125.7969  113.6019  133.0817 H   0  0  0  0  0  0  0  0  0  0  0  0
  126.7462  112.5068  133.6495 H   0  0  0  0  0  0  0  0  0  0  0  0
  131.2148  114.6492  129.9235 H   0  0  0  0  0  0  0  0  0  0  0  0
  1  2  2  0
  2  3  2  0
  2  4  1  0
  4  5  1  0
  5  6  1  0
  2  7  1  0
  7  8  1  0
  8  9  2  0
  9 10  1  0
 10 11  2  0
 11 12  1  0
 12 13  2  0
 13 14  1  0
 14 15  2  0
 15 16  1  0
 16 17  1  0
 17 18  1  0
 18 19  1  0
 19 20  1  0
 19 21  1  0
 19 22  1  0
 22 23  1  0
 15 24  1  0
 24 25  2  0
 25 26  1  0
 26 27  2  0
 27 28  1  0
 11 29  1  0
 29 30  1  0
 30 31  1  0
 31 32  1  0
 32 33  1  0
 33 34  1  0
 34 35  1  0
 33 36  1  0
 36 37  1  0
 29 38  2  0
 38  8  1  0
 28 12  1  0
 35 30  1  0
 27 14  1  0
 37 33  1  0
 23 16  1  0
  4 39  1  0
  4 40  1  0
  5 41  1  0
  5 42  1  0
  6 43  1  0
  7 44  1  0
  9 45  1  0
 10 46  1  0
 17 47  1  0
 17 48  1  0
 18 49  1  0
 18 50  1  0
 22 51  1  0
 22 52  1  0
 23 53  1  0
 23 54  1  0
 24 55  1  0
 25 56  1  0
 26 57  1  0
 31 58  1  0
 31 59  1  0
 32 60  1  0
 32 61  1  0
 34 62  1  0
 34 63  1  0
 35 64  1  0
 35 65  1  0
 36 66  1  0
 36 67  1  0
 37 68  1  0
 37 69  1  0
 38 70  1  0
M  END
$$$$

     RDKit          3D

 70 75  0  0  0  0  0  0  0  0999 V2000
  134.9870  112.7940  127.6050 O   0  0  0  0  0  0  0  0  0  0  0  0
  134.6760  113.6010  128.7670 S   0  0  0  0  0  6  0  0  0  0  0  0
  135.5100  114.7270  129.1260 O   0  0  0  0  0  0  0  0  0  0  0  0
  134.5150  112.5140  130.1690 C   0  0  0  0  0  0  0  0  0  0  0  0
  135.8460  112.2560  130.8400 C   0  0  0  0  0  0  0  0  0  0  0  0
  136.7060  111.5860  129.9220 O   0  0  0  0  0  0  0  0  0  0  0  0
  133.0850  114.1320  128.5190 N   0  0  0  0  0  0  0  0  0  0  0  0
  132.5790  115.1100  129.4280 C   0  0  0  0  0  0  0  0  0  0  0  0
  133.2370  116.3280  129.5500 C   0  0  0  0  0  0  0  0  0  0  0  0
  132.7240  117.3000  130.4060 C   0  0  0  0  0  0  0  0  0  0  0  0
  131.5480  117.0690  131.1490 C   0  0  0  0  0  0  0  0  0  0  0  0
  131.0990  118.1460  132.0430 C   0  0  0  0  0  0  0  0  0  0  0  0
  130.5160  117.9390  133.2040 N   0  0  0  0  0  0  0  0  0  0  0  0
  130.1690  119.1460  133.8130 C   0  0  0  0  0  0  0  0  0  0  0  0
  129.5610  119.3090  135.0990 C   0  0  0  0  0  0  0  0  0  0  0  0
  129.1740  118.2700  136.0000 N   0  0  0  0  0  0  0  0  0  0  0  0
  130.2480  117.7640  136.8740 C   0  0  0  0  0  0  0  0  0  0  0  0
  129.7710  116.4800  137.5350 C   0  0  0  0  0  0  0  0  0  0  0  0
  128.4810  116.7470  138.2780 C   0  0  0  0  0  0  0  0  0  0  0  0
  128.7300  117.5520  139.3450 F   0  0  0  0  0  0  0  0  0  0  0  0
  128.0110  115.5800  138.7940 F   0  0  0  0  0  0  0  0  0  0  0  0
  127.4060  117.3780  137.4200 C   0  0  0  0  0  0  0  0  0  0  0  0
  127.9500  118.6260  136.7430 C   0  0  0  0  0  0  0  0  0  0  0  0
  129.2920  120.6390  135.5090 C   0  0  0  0  0  0  0  0  0  0  0  0
  129.6090  121.7460  134.7280 C   0  0  0  0  0  0  0  0  0  0  0  0
  130.2110  121.5810  133.4860 C   0  0  0  0  0  0  0  0  0  0  0  0
  130.4780  120.2750  133.0480 C   0  0  0  0  0  0  0  0  0  0  0  0
  131.1970  119.7880  131.5620 S   0  0  0  0  0  0  0  0  0  0  0  0
  130.8550  115.8400  131.0010 C   0  0  0  0  0  0  0  0  0  0  0  0
  129.6190  115.6240  131.6450 N   0  0  0  0  0  0  0  0  0  0  0  0
  129.5870  114.7040  132.8000 C   0  0  0  0  0  0  0  0  0  0  0  0
  128.8000  113.4250  132.5020 C   0  0  0  0  0  0  0  0  0  0  0  0
  127.3760  113.7420  132.0800 C   0  0  0  0  0  0  0  0  0  0  0  0
  127.2150  115.0800  131.3770 C   0  0  0  0  0  0  0  0  0  0  0  0
  128.5120  115.4880  130.6690 C   0  0  0  0  0  0  0  0  0  0  0  0
  126.4980  112.5840  131.6480 C   0  0  0  0  0  0  0  0  0  0  0  0
  126.2320  113.2680  132.9560 C   0  0  0  0  0  0  0  0  0  0  0  0
  131.3970  114.8720  130.1340 C   0  0  0  0  0  0  0  0  0  0  0  0
  133.8323  112.9739  130.8987 H   0  0  0  0  0  0  0  0  0  0  0  0
  134.1225  111.5512  129.8099 H   0  0  0  0  0  0  0  0  0  0  0  0
  136.2995  113.2123  131.1396 H   0  0  0  0  0  0  0  0  0  0  0  0
  135.6971  111.6317  131.7333 H   0  0  0  0  0  0  0  0  0  0  0  0
  136.1450  111.0250  129.3580 H   0  0  0  0  0  0  0  0  0  0  0  0
  132.9800  114.3800  127.5330 H   0  0  0  0  0  0  0  0  0  0  0  0
  134.1548  116.5228  128.9758 H   0  0  0  0  0  0  0  0  0  0  0  0
  133.2450  118.2638  130.5040 H   0  0  0  0  0  0  0  0  0  0  0  0
  131.1480  117.5604  136.2752 H   0  0  0  0  0  0  0  0  0  0  0  0
  130.4926  118.5133  137.6413 H   0  0  0  0  0  0  0  0  0  0  0  0
  129.5994  115.7129  136.7655 H   0  0  0  0  0  0  0  0  0  0  0  0
  130.5353  116.1245  138.2417 H   0  0  0  0  0  0  0  0  0  0  0  0
  127.0825  116.6587  136.6532 H   0  0  0  0  0  0  0  0  0  0  0  0
  126.5514  117.6540  138.0552 H   0  0  0  0  0  0  0  0  0  0  0  0
  127.1983  119.0261  136.0467 H   0  0  0  0  0  0  0  0  0  0  0  0
  128.1815  119.3902  137.4995 H   0  0  0  0  0  0  0  0  0  0  0  0
  128.8126  120.8027  136.4854 H   0  0  0  0  0  0  0  0  0  0  0  0
  129.3819  122.7576  135.0955 H   0  0  0  0  0  0  0  0  0  0  0  0
  130.4708  122.4501  132.8638 H   0  0  0  0  0  0  0  0  0  0  0  0
  130.6195  114.4308  133.0635 H   0  0  0  0  0  0  0  0  0  0  0  0
  129.0847  115.2228  133.6298 H   0  0  0  0  0  0  0  0  0  0  0  0
  129.3009  112.8763  131.6908 H   0  0  0  0  0  0  0  0  0  0  0  0
  128.7646  112.8165  133.4177 H   0  0  0  0  0  0  0  0  0  0  0  0
  126.4086  115.0008  130.6330 H   0  0  0  0  0  0  0  0  0  0  0  0
  126.9711  115.8443  132.1296 H   0  0  0  0  0  0  0  0  0  0  0  0
  128.7762  114.7196  129.9276 H   0  0  0  0  0  0  0  0  0  0  0  0
  128.3554  116.4574  130.1733 H   0  0  0  0  0  0  0  0  0  0  0  0
  125.7965  112.7098  130.8101 H   0  0  0  0  0  0  0  0  0  0  0  0
  126.6819  111.5442  131.3399 H   0  0  0  0  0  0  0  0  0  0  0  0
  125.3359  113.8947  133.0756 H   0  0  0  0  0  0  0  0  0  0  0  0
  126.1409  112.9359  134.0007 H   0  0  0  0  0  0  0  0  0  0  0  0
  130.8796  113.9092  130.0100 H   0  0  0  0  0  0  0  0  0  0  0  0
  1  2  2  0
  2  3  2  0
  2  4  1  0
  4  5  1  0
  5  6  1  0
  2  7  1  0
  7  8  1  0
  8  9  2  0
  9 10  1  0
 10 11  2  0
 11 12  1  0
 12 13  2  0
 13 14  1  0
 14 15  2  0
 15 16  1  0
 16 17  1  0
 17 18  1  0
 18 19  1  0
 19 20  1  0
 19 21  1  0
 19 22  1  0
 22 23  1  0
 15 24  1  0
 24 25  2  0
 25 26  1  0
 26 27  2  0
 27 28  1  0
 11 29  1  0
 29 30  1  0
 30 31  1  0
 31 32  1  0
 32 33  1  0
 33 34  1  0
 34 35  1  0
 33 36  1  0
 36 37  1  0
 29 38  2  0
 38  8  1  0
 28 12  1  0
 35 30  1  0
 27 14  1  0
 37 33  1  0
 23 16  1  0
  4 39  1  0
  4 40  1  0
  5 41  1  0
  5 42  1  0
  6 43  1  0
  7 44  1  0
  9 45  1  0
 10 46  1  0
 17 47  1  0
 17 48  1  0
 18 49  1  0
 18 50  1  0
 22 51  1  0
 22 52  1  0
 23 53  1  0
 23 54  1  0
 24 55  1  0
 25 56  1  0
 26 57  1  0
 31 58  1  0
 31 59  1  0
 32 60  1  0
 32 61  1  0
 34 62  1  0
 34 63  1  0
 35 64  1  0
 35 65  1  0
 36 66  1  0
 36 67  1  0
 37 68  1  0
 37 69  1  0
 38 70  1  0
M  END
$$$$

     RDKit          3D

 70 75  0  0  0  0  0  0  0  0999 V2000
  135.4720  114.2500  129.7110 O   0  0  0  0  0  0  0  0  0  0  0  0
  134.1740  113.7430  129.3130 S   0  0  0  0  0  6  0  0  0  0  0  0
  133.3390  113.0360  130.2590 O   0  0  0  0  0  0  0  0  0  0  0  0
  134.3940  112.7420  127.8560 C   0  0  0  0  0  0  0  0  0  0  0  0
  133.1550  112.7240  126.9900 C   0  0  0  0  0  0  0  0  0  0  0  0
  132.0030  112.6850  127.8290 O   0  0  0  0  0  0  0  0  0  0  0  0
  133.3390  115.0930  128.7190 N   0  0  0  0  0  0  0  0  0  0  0  0
  132.7030  115.9360  129.6800 C   0  0  0  0  0  0  0  0  0  0  0  0
  133.1750  117.2290  129.8660 C   0  0  0  0  0  0  0  0  0  0  0  0
  132.5320  118.0680  130.7750 C   0  0  0  0  0  0  0  0  0  0  0  0
  131.4110  117.6270  131.5060 C   0  0  0  0  0  0  0  0  0  0  0  0
  130.8160  118.5760  132.4580 C   0  0  0  0  0  0  0  0  0  0  0  0
  130.0870  118.2170  133.4930 N   0  0  0  0  0  0  0  0  0  0  0  0
  129.6290  119.3330  134.1930 C   0  0  0  0  0  0  0  0  0  0  0  0
  128.8480  119.3250  135.3950 C   0  0  0  0  0  0  0  0  0  0  0  0
  128.3700  118.1750  136.0960 N   0  0  0  0  0  0  0  0  0  0  0  0
  127.8890  117.0750  135.2420 C   0  0  0  0  0  0  0  0  0  0  0  0
  127.1400  116.0780  136.1120 C   0  0  0  0  0  0  0  0  0  0  0  0
  128.0440  115.6080  137.2300 C   0  0  0  0  0  0  0  0  0  0  0  0
  129.0480  114.8490  136.7130 F   0  0  0  0  0  0  0  0  0  0  0  0
  127.3440  114.7850  138.0560 F   0  0  0  0  0  0  0  0  0  0  0  0
  128.6400  116.7360  138.0430 C   0  0  0  0  0  0  0  0  0  0  0  0
  129.3310  117.7280  137.1220 C   0  0  0  0  0  0  0  0  0  0  0  0
  128.4900  120.5890  135.9270 C   0  0  0  0  0  0  0  0  0  0  0  0
  128.8810  121.7900  135.3420 C   0  0  0  0  0  0  0  0  0  0  0  0
  129.6490  121.7910  134.1830 C   0  0  0  0  0  0  0  0  0  0  0  0
  130.0080  120.5530  133.6260 C   0  0  0  0  0  0  0  0  0  0  0  0
  130.9350  120.2670  132.2040 S   0  0  0  0  0  0  0  0  0  0  0  0
  130.9050  116.3180  131.2940 C   0  0  0  0  0  0  0  0  0  0  0  0
  129.7210  115.8870  131.9270 N   0  0  0  0  0  0  0  0  0  0  0  0
  129.7870  114.6850  132.7810 C   0  0  0  0  0  0  0  0  0  0  0  0
  129.0050  113.5080  132.1890 C   0  0  0  0  0  0  0  0  0  0  0  0
  127.5490  113.8770  131.9600 C   0  0  0  0  0  0  0  0  0  0  0  0
  127.3150  115.3490  131.6670 C   0  0  0  0  0  0  0  0  0  0  0  0
  128.5520  115.9840  131.0210 C   0  0  0  0  0  0  0  0  0  0  0  0
  126.6650  112.8500  131.2800 C   0  0  0  0  0  0  0  0  0  0  0  0
  126.4780  113.1380  132.7390 C   0  0  0  0  0  0  0  0  0  0  0  0
  131.5760  115.4890  130.3740 C   0  0  0  0  0  0  0  0  0  0  0  0
  135.2316  113.1475  127.2695 H   0  0  0  0  0  0  0  0  0  0  0  0
  134.5979  111.7106  128.1795 H   0  0  0  0  0  0  0  0  0  0  0  0
  133.1271  113.6303  126.3672 H   0  0  0  0  0  0  0  0  0  0  0  0
  133.1701  111.8382  126.3379 H   0  0  0  0  0  0  0  0  0  0  0  0
  131.8360  113.5950  128.1310 H   0  0  0  0  0  0  0  0  0  0  0  0
  133.9510  115.5870  128.0660 H   0  0  0  0  0  0  0  0  0  0  0  0
  134.0482  117.5877  129.3013 H   0  0  0  0  0  0  0  0  0  0  0  0
  132.9061  119.0916  130.9241 H   0  0  0  0  0  0  0  0  0  0  0  0
  127.2144  117.4731  134.4697 H   0  0  0  0  0  0  0  0  0  0  0  0
  128.7401  116.5805  134.7509 H   0  0  0  0  0  0  0  0  0  0  0  0
  126.2487  116.5607  136.5392 H   0  0  0  0  0  0  0  0  0  0  0  0
  126.8322  115.2162  135.5015 H   0  0  0  0  0  0  0  0  0  0  0  0
  127.8399  117.2488  138.5969 H   0  0  0  0  0  0  0  0  0  0  0  0
  129.3759  116.3240  138.7492 H   0  0  0  0  0  0  0  0  0  0  0  0
  129.6782  118.5937  137.7052 H   0  0  0  0  0  0  0  0  0  0  0  0
  130.1961  117.2494  136.6398 H   0  0  0  0  0  0  0  0  0  0  0  0
  127.8777  120.6223  136.8402 H   0  0  0  0  0  0  0  0  0  0  0  0
  128.5805  122.7442  135.7995 H   0  0  0  0  0  0  0  0  0  0  0  0
  129.9664  122.7348  133.7156 H   0  0  0  0  0  0  0  0  0  0  0  0
  130.8403  114.3888  132.8942 H   0  0  0  0  0  0  0  0  0  0  0  0
  129.3340  114.9361  133.7514 H   0  0  0  0  0  0  0  0  0  0  0  0
  129.4584  113.2226  131.2283 H   0  0  0  0  0  0  0  0  0  0  0  0
  129.0448  112.6698  132.9002 H   0  0  0  0  0  0  0  0  0  0  0  0
  126.4604  115.4479  130.9816 H   0  0  0  0  0  0  0  0  0  0  0  0
  127.1101  115.8669  132.6156 H   0  0  0  0  0  0  0  0  0  0  0  0
  128.7785  115.4595  130.0810 H   0  0  0  0  0  0  0  0  0  0  0  0
  128.3435  117.0458  130.8233 H   0  0  0  0  0  0  0  0  0  0  0  0
  125.9045  113.1746  130.5545 H   0  0  0  0  0  0  0  0  0  0  0  0
  126.8466  111.9423  130.6858 H   0  0  0  0  0  0  0  0  0  0  0  0
  125.5806  113.6737  133.0822 H   0  0  0  0  0  0  0  0  0  0  0  0
  126.4662  112.5285  133.6546 H   0  0  0  0  0  0  0  0  0  0  0  0
  131.2049  114.4685  130.1983 H   0  0  0  0  0  0  0  0  0  0  0  0
  1  2  2  0
  2  3  2  0
  2  4  1  0
  4  5  1  0
  5  6  1  0
  2  7  1  0
  7  8  1  0
  8  9  2  0
  9 10  1  0
 10 11  2  0
 11 12  1  0
 12 13  2  0
 13 14  1  0
 14 15  2  0
 15 16  1  0
 16 17  1  0
 17 18  1  0
 18 19  1  0
 19 20  1  0
 19 21  1  0
 19 22  1  0
 22 23  1  0
 15 24  1  0
 24 25  2  0
 25 26  1  0
 26 27  2  0
 27 28  1  0
 11 29  1  0
 29 30  1  0
 30 31  1  0
 31 32  1  0
 32 33  1  0
 33 34  1  0
 34 35  1  0
 33 36  1  0
 36 37  1  0
 29 38  2  0
 38  8  1  0
 28 12  1  0
 35 30  1  0
 27 14  1  0
 37 33  1  0
 23 16  1  0
  4 39  1  0
  4 40  1  0
  5 41  1  0
  5 42  1  0
  6 43  1  0
  7 44  1  0
  9 45  1  0
 10 46  1  0
 17 47  1  0
 17 48  1  0
 18 49  1  0
 18 50  1  0
 22 51  1  0
 22 52  1  0
 23 53  1  0
 23 54  1  0
 24 55  1  0
 25 56  1  0
 26 57  1  0
 31 58  1  0
 31 59  1  0
 32 60  1  0
 32 61  1  0
 34 62  1  0
 34 63  1  0
 35 64  1  0
 35 65  1  0
 36 66  1  0
 36 67  1  0
 37 68  1  0
 37 69  1  0
 38 70  1  0
M  END
$$$$

