
     RDKit          3D

 67 71  0  0  0  0  0  0  0  0999 V2000
  135.5560  112.5970  127.7400 O   0  0  0  0  0  0  0  0  0  0  0  0
  134.6680  113.0940  128.7660 S   0  0  0  0  0  6  0  0  0  0  0  0
  133.8190  112.1960  129.5220 O   0  0  0  0  0  0  0  0  0  0  0  0
  135.6010  114.0680  129.9270 C   0  0  0  0  0  0  0  0  0  0  0  0
  136.3820  113.1610  130.8540 C   0  0  0  0  0  0  0  0  0  0  0  0
  136.7030  111.9570  130.1620 O   0  0  0  0  0  0  0  0  0  0  0  0
  133.6180  114.2590  128.1240 N   0  0  0  0  0  0  0  0  0  0  0  0
  133.0150  115.1660  129.0470 C   0  0  0  0  0  0  0  0  0  0  0  0
  133.4840  116.4660  129.1360 C   0  0  0  0  0  0  0  0  0  0  0  0
  132.8610  117.3570  130.0060 C   0  0  0  0  0  0  0  0  0  0  0  0
  131.7480  116.9700  130.7870 C   0  0  0  0  0  0  0  0  0  0  0  0
  131.1950  117.9630  131.7330 C   0  0  0  0  0  0  0  0  0  0  0  0
  131.1470  119.3180  131.4080 C   0  0  0  0  0  0  0  0  0  0  0  0
  130.6030  120.1960  132.3250 C   0  0  0  0  0  0  0  0  0  0  0  0
  130.1090  119.8260  133.5270 N   0  0  0  0  0  0  0  0  0  0  0  0
  130.1580  118.5190  133.8600 C   0  0  0  0  0  0  0  0  0  0  0  0
  129.6510  118.0870  135.1110 N   0  0  0  0  0  0  0  0  0  0  0  0
  128.7650  119.1010  135.7070 C   0  0  0  0  0  0  0  0  0  0  0  0
  128.4120  118.6780  137.1240 C   0  0  0  0  0  0  0  0  0  0  0  0
  127.8190  117.2870  137.1130 C   0  0  0  0  0  0  0  0  0  0  0  0
  127.5900  116.8900  138.3920 F   0  0  0  0  0  0  0  0  0  0  0  0
  126.6010  117.3230  136.5090 F   0  0  0  0  0  0  0  0  0  0  0  0
  128.6950  116.2670  136.4210 C   0  0  0  0  0  0  0  0  0  0  0  0
  129.0330  116.7520  135.0220 C   0  0  0  0  0  0  0  0  0  0  0  0
  130.6820  117.5720  132.9770 C   0  0  0  0  0  0  0  0  0  0  0  0
  131.2430  115.6420  130.6730 C   0  0  0  0  0  0  0  0  0  0  0  0
  130.1110  115.2190  131.3910 N   0  0  0  0  0  0  0  0  0  0  0  0
  128.8040  115.5550  130.7810 C   0  0  0  0  0  0  0  0  0  0  0  0
  127.8410  114.3610  130.7930 C   0  0  0  0  0  0  0  0  0  0  0  0
  127.6610  113.8060  132.1950 C   0  0  0  0  0  0  0  0  0  0  0  0
  128.9130  113.8660  133.0550 C   0  0  0  0  0  0  0  0  0  0  0  0
  130.1720  113.9860  132.1880 C   0  0  0  0  0  0  0  0  0  0  0  0
  126.3250  113.9920  132.8860 C   0  0  0  0  0  0  0  0  0  0  0  0
  126.7120  112.6380  132.3720 C   0  0  0  0  0  0  0  0  0  0  0  0
  131.9070  114.7600  129.7950 C   0  0  0  0  0  0  0  0  0  0  0  0
  136.2995  114.7175  129.3791 H   0  0  0  0  0  0  0  0  0  0  0  0
  134.9087  114.6822  130.5215 H   0  0  0  0  0  0  0  0  0  0  0  0
  137.3083  113.6641  131.1683 H   0  0  0  0  0  0  0  0  0  0  0  0
  135.7779  112.9291  131.7436 H   0  0  0  0  0  0  0  0  0  0  0  0
  137.2550  111.4210  130.7610 H   0  0  0  0  0  0  0  0  0  0  0  0
  134.0710  114.7010  127.3220 H   0  0  0  0  0  0  0  0  0  0  0  0
  134.3396  116.7913  128.5259 H   0  0  0  0  0  0  0  0  0  0  0  0
  133.2435  118.3851  130.0874 H   0  0  0  0  0  0  0  0  0  0  0  0
  131.5334  119.6794  130.4436 H   0  0  0  0  0  0  0  0  0  0  0  0
  130.5698  121.2631  132.0602 H   0  0  0  0  0  0  0  0  0  0  0  0
  129.2795  120.0730  135.7296 H   0  0  0  0  0  0  0  0  0  0  0  0
  127.8477  119.1922  135.1068 H   0  0  0  0  0  0  0  0  0  0  0  0
  129.3212  118.6820  137.7431 H   0  0  0  0  0  0  0  0  0  0  0  0
  127.6762  119.3822  137.5396 H   0  0  0  0  0  0  0  0  0  0  0  0
  129.6231  116.1313  136.9957 H   0  0  0  0  0  0  0  0  0  0  0  0
  128.1589  115.3087  136.3561 H   0  0  0  0  0  0  0  0  0  0  0  0
  129.7366  116.0511  134.5491 H   0  0  0  0  0  0  0  0  0  0  0  0
  128.1159  116.8076  134.4172 H   0  0  0  0  0  0  0  0  0  0  0  0
  130.6921  116.5093  133.2608 H   0  0  0  0  0  0  0  0  0  0  0  0
  128.3506  116.3828  131.3460 H   0  0  0  0  0  0  0  0  0  0  0  0
  128.9808  115.8388  129.7330 H   0  0  0  0  0  0  0  0  0  0  0  0
  126.8630  114.6866  130.4091 H   0  0  0  0  0  0  0  0  0  0  0  0
  128.2658  113.5683  130.1596 H   0  0  0  0  0  0  0  0  0  0  0  0
  128.8503  114.7396  133.7206 H   0  0  0  0  0  0  0  0  0  0  0  0
  128.9793  112.9377  133.6414 H   0  0  0  0  0  0  0  0  0  0  0  0
  131.0605  114.0134  132.8359 H   0  0  0  0  0  0  0  0  0  0  0  0
  130.2325  113.1195  131.5131 H   0  0  0  0  0  0  0  0  0  0  0  0
  126.2885  114.1781  133.9695 H   0  0  0  0  0  0  0  0  0  0  0  0
  125.4628  114.6596  132.7409 H   0  0  0  0  0  0  0  0  0  0  0  0
  126.9589  111.8323  133.0791 H   0  0  0  0  0  0  0  0  0  0  0  0
  126.2502  111.9043  131.6949 H   0  0  0  0  0  0  0  0  0  0  0  0
  131.5433  113.7265  129.6967 H   0  0  0  0  0  0  0  0  0  0  0  0
  1  2  2  0
  2  3  2  0
  2  4  1  0
  4  5  1  0
  5  6  1  0
  2  7  1  0
  7  8  1  0
  8  9  2  0
  9 10  1  0
 10 11  2  0
 11 12  1  0
 12 13  2  0
 13 14  1  0
 14 15  2  0
 15 16  1  0
 16 17  1  0
 17 18  1  0
 18 19  1  0
 19 20  1  0
 20 21  1  0
 20 22  1  0
 20 23  1  0
 23 24  1  0
 16 25  2  0
 11 26  1  0
 26 27  1  0
 27 28  1  0
 28 29  1  0
 29 30  1  0
 30 31  1  0
 31 32  1  0
 30 33  1  0
 33 34  1  0
 26 35  2  0
 35  8  1  0
 25 12  1  0
 32 27  1  0
 24 17  1  0
 34 30  1  0
  4 36  1  0
  4 37  1  0
  5 38  1  0
  5 39  1  0
  6 40  1  0
  7 41  1  0
  9 42  1  0
 10 43  1  0
 13 44  1  0
 14 45  1  0
 18 46  1  0
 18 47  1  0
 19 48  1  0
 19 49  1  0
 23 50  1  0
 23 51  1  0
 24 52  1  0
 24 53  1  0
 25 54  1  0
 28 55  1  0
 28 56  1  0
 29 57  1  0
 29 58  1  0
 31 59  1  0
 31 60  1  0
 32 61  1  0
 32 62  1  0
 33 63  1  0
 33 64  1  0
 34 65  1  0
 34 66  1  0
 35 67  1  0
M  END
$$$$

     RDKit          3D

 67 71  0  0  0  0  0  0  0  0999 V2000
  133.5100  112.0480  129.3860 O   0  0  0  0  0  0  0  0  0  0  0  0
  134.4950  113.1030  129.3200 S   0  0  0  0  0  6  0  0  0  0  0  0
  135.1490  113.5940  130.5160 O   0  0  0  0  0  0  0  0  0  0  0  0
  135.7610  112.6500  128.1540 C   0  0  0  0  0  0  0  0  0  0  0  0
  137.1130  112.6440  128.8350 C   0  0  0  0  0  0  0  0  0  0  0  0
  137.1850  111.5240  129.7130 O   0  0  0  0  0  0  0  0  0  0  0  0
  133.8390  114.4790  128.5790 N   0  0  0  0  0  0  0  0  0  0  0  0
  133.1240  115.3870  129.4160 C   0  0  0  0  0  0  0  0  0  0  0  0
  133.5230  116.7110  129.4900 C   0  0  0  0  0  0  0  0  0  0  0  0
  132.7930  117.6000  130.2750 C   0  0  0  0  0  0  0  0  0  0  0  0
  131.6420  117.1860  130.9830 C   0  0  0  0  0  0  0  0  0  0  0  0
  130.9710  118.1830  131.8430 C   0  0  0  0  0  0  0  0  0  0  0  0
  131.0080  119.5430  131.5360 C   0  0  0  0  0  0  0  0  0  0  0  0
  130.3470  120.4250  132.3680 C   0  0  0  0  0  0  0  0  0  0  0  0
  129.6600  120.0550  133.4710 N   0  0  0  0  0  0  0  0  0  0  0  0
  129.6240  118.7440  133.7880 C   0  0  0  0  0  0  0  0  0  0  0  0
  128.9150  118.3120  134.9370 N   0  0  0  0  0  0  0  0  0  0  0  0
  129.3500  116.9700  135.3600 C   0  0  0  0  0  0  0  0  0  0  0  0
  128.4290  116.4740  136.4620 C   0  0  0  0  0  0  0  0  0  0  0  0
  128.3880  117.4810  137.5890 C   0  0  0  0  0  0  0  0  0  0  0  0
  127.4950  117.0670  138.5260 F   0  0  0  0  0  0  0  0  0  0  0  0
  129.5970  117.5060  138.2120 F   0  0  0  0  0  0  0  0  0  0  0  0
  128.0260  118.8770  137.1350 C   0  0  0  0  0  0  0  0  0  0  0  0
  128.9640  119.3090  136.0210 C   0  0  0  0  0  0  0  0  0  0  0  0
  130.2580  117.7930  132.9860 C   0  0  0  0  0  0  0  0  0  0  0  0
  131.2100  115.8310  130.8820 C   0  0  0  0  0  0  0  0  0  0  0  0
  130.0470  115.3780  131.5270 N   0  0  0  0  0  0  0  0  0  0  0  0
  128.7840  115.5690  130.7770 C   0  0  0  0  0  0  0  0  0  0  0  0
  127.9080  114.3100  130.7990 C   0  0  0  0  0  0  0  0  0  0  0  0
  127.6340  113.8480  132.2190 C   0  0  0  0  0  0  0  0  0  0  0  0
  128.7900  114.0660  133.1810 C   0  0  0  0  0  0  0  0  0  0  0  0
  130.1150  114.2160  132.4230 C   0  0  0  0  0  0  0  0  0  0  0  0
  126.2280  113.9830  132.7710 C   0  0  0  0  0  0  0  0  0  0  0  0
  126.7540  112.6280  132.4040 C   0  0  0  0  0  0  0  0  0  0  0  0
  131.9810  114.9530  130.0930 C   0  0  0  0  0  0  0  0  0  0  0  0
  135.5485  111.6464  127.7570 H   0  0  0  0  0  0  0  0  0  0  0  0
  135.7736  113.3810  127.3321 H   0  0  0  0  0  0  0  0  0  0  0  0
  137.9072  112.5705  128.0775 H   0  0  0  0  0  0  0  0  0  0  0  0
  137.2451  113.5741  129.4073 H   0  0  0  0  0  0  0  0  0  0  0  0
  138.0880  111.5050  130.0790 H   0  0  0  0  0  0  0  0  0  0  0  0
  134.5580  114.9100  127.9940 H   0  0  0  0  0  0  0  0  0  0  0  0
  134.4072  117.0569  128.9346 H   0  0  0  0  0  0  0  0  0  0  0  0
  133.1196  118.6480  130.3456 H   0  0  0  0  0  0  0  0  0  0  0  0
  131.5516  119.9050  130.6509 H   0  0  0  0  0  0  0  0  0  0  0  0
  130.3820  121.4954  132.1171 H   0  0  0  0  0  0  0  0  0  0  0  0
  129.3045  116.2810  134.5038 H   0  0  0  0  0  0  0  0  0  0  0  0
  130.3838  117.0157  135.7331 H   0  0  0  0  0  0  0  0  0  0  0  0
  127.4154  116.3382  136.0569 H   0  0  0  0  0  0  0  0  0  0  0  0
  128.8069  115.5150  136.8462 H   0  0  0  0  0  0  0  0  0  0  0  0
  126.9901  118.8847  136.7651 H   0  0  0  0  0  0  0  0  0  0  0  0
  128.1194  119.5727  137.9820 H   0  0  0  0  0  0  0  0  0  0  0  0
  128.6498  120.2897  135.6342 H   0  0  0  0  0  0  0  0  0  0  0  0
  129.9905  119.3851  136.4089 H   0  0  0  0  0  0  0  0  0  0  0  0
  130.1977  116.7277  133.2532 H   0  0  0  0  0  0  0  0  0  0  0  0
  128.2236  116.3998  131.2305 H   0  0  0  0  0  0  0  0  0  0  0  0
  129.0398  115.7873  129.7297 H   0  0  0  0  0  0  0  0  0  0  0  0
  126.9509  114.5317  130.3042 H   0  0  0  0  0  0  0  0  0  0  0  0
  128.4442  113.5070  130.2720 H   0  0  0  0  0  0  0  0  0  0  0  0
  128.6044  114.9793  133.7653 H   0  0  0  0  0  0  0  0  0  0  0  0
  128.8630  113.1920  133.8449 H   0  0  0  0  0  0  0  0  0  0  0  0
  130.9339  114.3580  133.1436 H   0  0  0  0  0  0  0  0  0  0  0  0
  130.2978  113.3089  131.8282 H   0  0  0  0  0  0  0  0  0  0  0  0
  126.0761  114.2451  133.8285 H   0  0  0  0  0  0  0  0  0  0  0  0
  125.3398  114.5710  132.4963 H   0  0  0  0  0  0  0  0  0  0  0  0
  126.9871  111.8976  133.1928 H   0  0  0  0  0  0  0  0  0  0  0  0
  126.4098  111.8137  131.7495 H   0  0  0  0  0  0  0  0  0  0  0  0
  131.6752  113.8998  130.0082 H   0  0  0  0  0  0  0  0  0  0  0  0
  1  2  2  0
  2  3  2  0
  2  4  1  0
  4  5  1  0
  5  6  1  0
  2  7  1  0
  7  8  1  0
  8  9  2  0
  9 10  1  0
 10 11  2  0
 11 12  1  0
 12 13  2  0
 13 14  1  0
 14 15  2  0
 15 16  1  0
 16 17  1  0
 17 18  1  0
 18 19  1  0
 19 20  1  0
 20 21  1  0
 20 22  1  0
 20 23  1  0
 23 24  1  0
 16 25  2  0
 11 26  1  0
 26 27  1  0
 27 28  1  0
 28 29  1  0
 29 30  1  0
 30 31  1  0
 31 32  1  0
 30 33  1  0
 33 34  1  0
 26 35  2  0
 35  8  1  0
 25 12  1  0
 32 27  1  0
 24 17  1  0
 34 30  1  0
  4 36  1  0
  4 37  1  0
  5 38  1  0
  5 39  1  0
  6 40  1  0
  7 41  1  0
  9 42  1  0
 10 43  1  0
 13 44  1  0
 14 45  1  0
 18 46  1  0
 18 47  1  0
 19 48  1  0
 19 49  1  0
 23 50  1  0
 23 51  1  0
 24 52  1  0
 24 53  1  0
 25 54  1  0
 28 55  1  0
 28 56  1  0
 29 57  1  0
 29 58  1  0
 31 59  1  0
 31 60  1  0
 32 61  1  0
 32 62  1  0
 33 63  1  0
 33 64  1  0
 34 65  1  0
 34 66  1  0
 35 67  1  0
M  END
$$$$

     RDKit          3D

 67 71  0  0  0  0  0  0  0  0999 V2000
  134.3300  113.1870  130.4260 O   0  0  0  0  0  0  0  0  0  0  0  0
  134.8770  113.8940  129.2910 S   0  0  0  0  0  6  0  0  0  0  0  0
  136.0780  114.6950  129.4140 O   0  0  0  0  0  0  0  0  0  0  0  0
  135.1200  112.7510  127.9490 C   0  0  0  0  0  0  0  0  0  0  0  0
  133.8400  112.6080  127.1530 C   0  0  0  0  0  0  0  0  0  0  0  0
  132.8220  112.0840  128.0020 O   0  0  0  0  0  0  0  0  0  0  0  0
  133.7170  114.9380  128.6300 N   0  0  0  0  0  0  0  0  0  0  0  0
  132.9890  115.7590  129.5430 C   0  0  0  0  0  0  0  0  0  0  0  0
  133.3480  117.0870  129.7080 C   0  0  0  0  0  0  0  0  0  0  0  0
  132.6050  117.8910  130.5680 C   0  0  0  0  0  0  0  0  0  0  0  0
  131.4810  117.3900  131.2620 C   0  0  0  0  0  0  0  0  0  0  0  0
  130.7950  118.2990  132.2040 C   0  0  0  0  0  0  0  0  0  0  0  0
  130.6110  119.6470  131.9000 C   0  0  0  0  0  0  0  0  0  0  0  0
  129.9470  120.4440  132.8130 C   0  0  0  0  0  0  0  0  0  0  0  0
  129.4590  120.0000  133.9910 N   0  0  0  0  0  0  0  0  0  0  0  0
  129.6390  118.7000  134.3050 C   0  0  0  0  0  0  0  0  0  0  0  0
  129.1430  118.1910  135.5310 N   0  0  0  0  0  0  0  0  0  0  0  0
  128.9290  116.7360  135.4590 C   0  0  0  0  0  0  0  0  0  0  0  0
  128.2140  116.2770  136.7190 C   0  0  0  0  0  0  0  0  0  0  0  0
  128.9930  116.7140  137.9400 C   0  0  0  0  0  0  0  0  0  0  0  0
  128.2990  116.3730  139.0570 F   0  0  0  0  0  0  0  0  0  0  0  0
  130.1610  116.0190  137.9990 F   0  0  0  0  0  0  0  0  0  0  0  0
  129.2860  118.1960  137.9650 C   0  0  0  0  0  0  0  0  0  0  0  0
  129.9780  118.6010  136.6750 C   0  0  0  0  0  0  0  0  0  0  0  0
  130.2890  117.8310  133.4250 C   0  0  0  0  0  0  0  0  0  0  0  0
  131.0900  116.0330  131.0680 C   0  0  0  0  0  0  0  0  0  0  0  0
  129.9530  115.4960  131.6970 N   0  0  0  0  0  0  0  0  0  0  0  0
  128.6620  115.7650  131.0220 C   0  0  0  0  0  0  0  0  0  0  0  0
  127.7930  114.5040  130.9260 C   0  0  0  0  0  0  0  0  0  0  0  0
  127.5740  113.8750  132.2900 C   0  0  0  0  0  0  0  0  0  0  0  0
  128.7650  113.9860  133.2280 C   0  0  0  0  0  0  0  0  0  0  0  0
  130.0590  114.2370  132.4450 C   0  0  0  0  0  0  0  0  0  0  0  0
  126.1890  113.9310  132.9040 C   0  0  0  0  0  0  0  0  0  0  0  0
  126.7070  112.6330  132.3600 C   0  0  0  0  0  0  0  0  0  0  0  0
  131.8730  115.2400  130.2050 C   0  0  0  0  0  0  0  0  0  0  0  0
  135.9181  113.1257  127.2913 H   0  0  0  0  0  0  0  0  0  0  0  0
  135.4032  111.7696  128.3571 H   0  0  0  0  0  0  0  0  0  0  0  0
  133.5313  113.5923  126.7710 H   0  0  0  0  0  0  0  0  0  0  0  0
  134.0038  111.9270  126.3049 H   0  0  0  0  0  0  0  0  0  0  0  0
  133.2440  111.4200  128.5780 H   0  0  0  0  0  0  0  0  0  0  0  0
  134.1360  115.4390  127.8440 H   0  0  0  0  0  0  0  0  0  0  0  0
  134.2105  117.5014  129.1655 H   0  0  0  0  0  0  0  0  0  0  0  0
  132.9000  118.9411  130.7105 H   0  0  0  0  0  0  0  0  0  0  0  0
  130.9858  120.0667  130.9548 H   0  0  0  0  0  0  0  0  0  0  0  0
  129.8073  121.5064  132.5645 H   0  0  0  0  0  0  0  0  0  0  0  0
  128.3144  116.4970  134.5786 H   0  0  0  0  0  0  0  0  0  0  0  0
  129.8978  116.2221  135.3739 H   0  0  0  0  0  0  0  0  0  0  0  0
  127.2080  116.7207  136.7499 H   0  0  0  0  0  0  0  0  0  0  0  0
  128.1359  115.1798  136.7123 H   0  0  0  0  0  0  0  0  0  0  0  0
  128.3432  118.7538  138.0653 H   0  0  0  0  0  0  0  0  0  0  0  0
  129.9417  118.4241  138.8182 H   0  0  0  0  0  0  0  0  0  0  0  0
  130.1163  119.6921  136.6579 H   0  0  0  0  0  0  0  0  0  0  0  0
  130.9606  118.1106  136.6115 H   0  0  0  0  0  0  0  0  0  0  0  0
  130.4048  116.7703  133.6924 H   0  0  0  0  0  0  0  0  0  0  0  0
  128.1156  116.5310  131.5918 H   0  0  0  0  0  0  0  0  0  0  0  0
  128.8770  116.1095  129.9997 H   0  0  0  0  0  0  0  0  0  0  0  0
  126.8172  114.7741  130.4960 H   0  0  0  0  0  0  0  0  0  0  0  0
  128.3130  113.7739  130.2884 H   0  0  0  0  0  0  0  0  0  0  0  0
  128.5980  114.8211  133.9242 H   0  0  0  0  0  0  0  0  0  0  0  0
  128.8667  113.0395  133.7791 H   0  0  0  0  0  0  0  0  0  0  0  0
  130.9038  114.2994  133.1467 H   0  0  0  0  0  0  0  0  0  0  0  0
  130.2225  113.4088  131.7397 H   0  0  0  0  0  0  0  0  0  0  0  0
  126.0749  114.0646  133.9899 H   0  0  0  0  0  0  0  0  0  0  0  0
  125.2888  114.5396  132.7330 H   0  0  0  0  0  0  0  0  0  0  0  0
  126.9722  111.8163  133.0476 H   0  0  0  0  0  0  0  0  0  0  0  0
  126.3427  111.8988  131.6263 H   0  0  0  0  0  0  0  0  0  0  0  0
  131.5988  114.1863  130.0487 H   0  0  0  0  0  0  0  0  0  0  0  0
  1  2  2  0
  2  3  2  0
  2  4  1  0
  4  5  1  0
  5  6  1  0
  2  7  1  0
  7  8  1  0
  8  9  2  0
  9 10  1  0
 10 11  2  0
 11 12  1  0
 12 13  2  0
 13 14  1  0
 14 15  2  0
 15 16  1  0
 16 17  1  0
 17 18  1  0
 18 19  1  0
 19 20  1  0
 20 21  1  0
 20 22  1  0
 20 23  1  0
 23 24  1  0
 16 25  2  0
 11 26  1  0
 26 27  1  0
 27 28  1  0
 28 29  1  0
 29 30  1  0
 30 31  1  0
 31 32  1  0
 30 33  1  0
 33 34  1  0
 26 35  2  0
 35  8  1  0
 25 12  1  0
 32 27  1  0
 24 17  1  0
 34 30  1  0
  4 36  1  0
  4 37  1  0
  5 38  1  0
  5 39  1  0
  6 40  1  0
  7 41  1  0
  9 42  1  0
 10 43  1  0
 13 44  1  0
 14 45  1  0
 18 46  1  0
 18 47  1  0
 19 48  1  0
 19 49  1  0
 23 50  1  0
 23 51  1  0
 24 52  1  0
 24 53  1  0
 25 54  1  0
 28 55  1  0
 28 56  1  0
 29 57  1  0
 29 58  1  0
 31 59  1  0
 31 60  1  0
 32 61  1  0
 32 62  1  0
 33 63  1  0
 33 64  1  0
 34 65  1  0
 34 66  1  0
 35 67  1  0
M  END
$$$$

     RDKit          3D

 67 71  0  0  0  0  0  0  0  0999 V2000
  135.9980  114.6020  129.1670 O   0  0  0  0  0  0  0  0  0  0  0  0
  135.2510  113.4460  128.7260 S   0  0  0  0  0  6  0  0  0  0  0  0
  135.7030  112.6430  127.6080 O   0  0  0  0  0  0  0  0  0  0  0  0
  134.9880  112.3560  130.1080 C   0  0  0  0  0  0  0  0  0  0  0  0
  135.9420  112.7050  131.2310 C   0  0  0  0  0  0  0  0  0  0  0  0
  137.2780  112.4750  130.7930 O   0  0  0  0  0  0  0  0  0  0  0  0
  133.6590  113.8830  128.3410 N   0  0  0  0  0  0  0  0  0  0  0  0
  133.0450  114.8770  129.1600 C   0  0  0  0  0  0  0  0  0  0  0  0
  133.5400  116.1710  129.1550 C   0  0  0  0  0  0  0  0  0  0  0  0
  132.9070  117.1460  129.9220 C   0  0  0  0  0  0  0  0  0  0  0  0
  131.7590  116.8500  130.6910 C   0  0  0  0  0  0  0  0  0  0  0  0
  131.1960  117.9310  131.5270 C   0  0  0  0  0  0  0  0  0  0  0  0
  131.3990  119.2720  131.2040 C   0  0  0  0  0  0  0  0  0  0  0  0
  130.8320  120.2380  132.0120 C   0  0  0  0  0  0  0  0  0  0  0  0
  130.0880  119.9680  133.1070 N   0  0  0  0  0  0  0  0  0  0  0  0
  129.8920  118.6750  133.4400 C   0  0  0  0  0  0  0  0  0  0  0  0
  129.1180  118.3460  134.5800 N   0  0  0  0  0  0  0  0  0  0  0  0
  129.4830  117.0210  135.1100 C   0  0  0  0  0  0  0  0  0  0  0  0
  128.4960  116.6340  136.1980 C   0  0  0  0  0  0  0  0  0  0  0  0
  128.4430  117.7150  137.2540 C   0  0  0  0  0  0  0  0  0  0  0  0
  127.4950  117.3960  138.1730 F   0  0  0  0  0  0  0  0  0  0  0  0
  129.6240  117.7400  137.9290 F   0  0  0  0  0  0  0  0  0  0  0  0
  128.1540  119.0880  136.6920 C   0  0  0  0  0  0  0  0  0  0  0  0
  129.1560  119.4120  135.5970 C   0  0  0  0  0  0  0  0  0  0  0  0
  130.4220  117.6440  132.6610 C   0  0  0  0  0  0  0  0  0  0  0  0
  131.2280  115.5270  130.6720 C   0  0  0  0  0  0  0  0  0  0  0  0
  130.0630  115.1900  131.3810 N   0  0  0  0  0  0  0  0  0  0  0  0
  128.7900  115.3890  130.6510 C   0  0  0  0  0  0  0  0  0  0  0  0
  127.8500  114.1850  130.7970 C   0  0  0  0  0  0  0  0  0  0  0  0
  127.5950  113.8520  132.2560 C   0  0  0  0  0  0  0  0  0  0  0  0
  128.7900  114.0810  133.1670 C   0  0  0  0  0  0  0  0  0  0  0  0
  130.0970  114.1000  132.3660 C   0  0  0  0  0  0  0  0  0  0  0  0
  126.2160  114.1060  132.8300 C   0  0  0  0  0  0  0  0  0  0  0  0
  126.6590  112.6990  132.5610 C   0  0  0  0  0  0  0  0  0  0  0  0
  131.9030  114.5600  129.8990 C   0  0  0  0  0  0  0  0  0  0  0  0
  133.9524  112.4617  130.4635 H   0  0  0  0  0  0  0  0  0  0  0  0
  135.1688  111.3187  129.7896 H   0  0  0  0  0  0  0  0  0  0  0  0
  135.8201  113.7639  131.5027 H   0  0  0  0  0  0  0  0  0  0  0  0
  135.7262  112.0796  132.1098 H   0  0  0  0  0  0  0  0  0  0  0  0
  137.6910  111.8720  131.4380 H   0  0  0  0  0  0  0  0  0  0  0  0
  133.6020  114.0590  127.3360 H   0  0  0  0  0  0  0  0  0  0  0  0
  134.4237  116.4256  128.5515 H   0  0  0  0  0  0  0  0  0  0  0  0
  133.3097  118.1696  129.9294 H   0  0  0  0  0  0  0  0  0  0  0  0
  131.9974  119.5543  130.3252 H   0  0  0  0  0  0  0  0  0  0  0  0
  130.9964  121.2930  131.7475 H   0  0  0  0  0  0  0  0  0  0  0  0
  129.4489  116.2777  134.2999 H   0  0  0  0  0  0  0  0  0  0  0  0
  130.5005  117.0550  135.5265 H   0  0  0  0  0  0  0  0  0  0  0  0
  127.4969  116.5072  135.7556 H   0  0  0  0  0  0  0  0  0  0  0  0
  128.8202  115.6907  136.6618 H   0  0  0  0  0  0  0  0  0  0  0  0
  127.1366  119.1058  136.2741 H   0  0  0  0  0  0  0  0  0  0  0  0
  128.2357  119.8357  137.4946 H   0  0  0  0  0  0  0  0  0  0  0  0
  128.8958  120.3744  135.1322 H   0  0  0  0  0  0  0  0  0  0  0  0
  130.1664  119.4796  136.0265 H   0  0  0  0  0  0  0  0  0  0  0  0
  130.2306  116.5972  132.9394 H   0  0  0  0  0  0  0  0  0  0  0  0
  128.2875  116.2824  131.0501 H   0  0  0  0  0  0  0  0  0  0  0  0
  129.0255  115.5089  129.5832 H   0  0  0  0  0  0  0  0  0  0  0  0
  126.8914  114.4190  130.3109 H   0  0  0  0  0  0  0  0  0  0  0  0
  128.3274  113.3149  130.3227 H   0  0  0  0  0  0  0  0  0  0  0  0
  128.6699  115.0455  133.6820 H   0  0  0  0  0  0  0  0  0  0  0  0
  128.8377  113.2580  133.8953 H   0  0  0  0  0  0  0  0  0  0  0  0
  130.9431  114.2542  133.0518 H   0  0  0  0  0  0  0  0  0  0  0  0
  130.2145  113.1405  131.8411 H   0  0  0  0  0  0  0  0  0  0  0  0
  126.1093  114.4593  133.8662 H   0  0  0  0  0  0  0  0  0  0  0  0
  125.3521  114.7177  132.5309 H   0  0  0  0  0  0  0  0  0  0  0  0
  126.8770  112.0220  133.4002 H   0  0  0  0  0  0  0  0  0  0  0  0
  126.2538  111.8549  131.9836 H   0  0  0  0  0  0  0  0  0  0  0  0
  131.5202  113.5290  129.8774 H   0  0  0  0  0  0  0  0  0  0  0  0
  1  2  2  0
  2  3  2  0
  2  4  1  0
  4  5  1  0
  5  6  1  0
  2  7  1  0
  7  8  1  0
  8  9  2  0
  9 10  1  0
 10 11  2  0
 11 12  1  0
 12 13  2  0
 13 14  1  0
 14 15  2  0
 15 16  1  0
 16 17  1  0
 17 18  1  0
 18 19  1  0
 19 20  1  0
 20 21  1  0
 20 22  1  0
 20 23  1  0
 23 24  1  0
 16 25  2  0
 11 26  1  0
 26 27  1  0
 27 28  1  0
 28 29  1  0
 29 30  1  0
 30 31  1  0
 31 32  1  0
 30 33  1  0
 33 34  1  0
 26 35  2  0
 35  8  1  0
 25 12  1  0
 32 27  1  0
 24 17  1  0
 34 30  1  0
  4 36  1  0
  4 37  1  0
  5 38  1  0
  5 39  1  0
  6 40  1  0
  7 41  1  0
  9 42  1  0
 10 43  1  0
 13 44  1  0
 14 45  1  0
 18 46  1  0
 18 47  1  0
 19 48  1  0
 19 49  1  0
 23 50  1  0
 23 51  1  0
 24 52  1  0
 24 53  1  0
 25 54  1  0
 28 55  1  0
 28 56  1  0
 29 57  1  0
 29 58  1  0
 31 59  1  0
 31 60  1  0
 32 61  1  0
 32 62  1  0
 33 63  1  0
 33 64  1  0
 34 65  1  0
 34 66  1  0
 35 67  1  0
M  END
$$$$

     RDKit          3D

 67 71  0  0  0  0  0  0  0  0999 V2000
  135.6450  114.5990  129.6440 O   0  0  0  0  0  0  0  0  0  0  0  0
  134.5270  114.0490  128.9120 S   0  0  0  0  0  6  0  0  0  0  0  0
  134.7320  113.2100  127.7490 O   0  0  0  0  0  0  0  0  0  0  0  0
  133.4650  113.1710  130.0370 C   0  0  0  0  0  0  0  0  0  0  0  0
  134.2030  111.9900  130.6310 C   0  0  0  0  0  0  0  0  0  0  0  0
  135.5110  111.9320  130.0690 O   0  0  0  0  0  0  0  0  0  0  0  0
  133.4990  115.2900  128.3850 N   0  0  0  0  0  0  0  0  0  0  0  0
  132.7910  116.0150  129.3900 C   0  0  0  0  0  0  0  0  0  0  0  0
  133.1320  117.3310  129.6540 C   0  0  0  0  0  0  0  0  0  0  0  0
  132.4070  118.0450  130.6050 C   0  0  0  0  0  0  0  0  0  0  0  0
  131.3180  117.4630  131.2930 C   0  0  0  0  0  0  0  0  0  0  0  0
  130.6510  118.2750  132.3320 C   0  0  0  0  0  0  0  0  0  0  0  0
  130.5870  119.6640  132.2320 C   0  0  0  0  0  0  0  0  0  0  0  0
  129.9350  120.3680  133.2250 C   0  0  0  0  0  0  0  0  0  0  0  0
  129.3490  119.7940  134.2990 N   0  0  0  0  0  0  0  0  0  0  0  0
  129.4110  118.4520  134.4160 C   0  0  0  0  0  0  0  0  0  0  0  0
  128.8100  117.8080  135.5260 N   0  0  0  0  0  0  0  0  0  0  0  0
  129.1200  116.3690  135.5420 C   0  0  0  0  0  0  0  0  0  0  0  0
  128.2950  115.6960  136.6270 C   0  0  0  0  0  0  0  0  0  0  0  0
  128.5330  116.3810  137.9540 C   0  0  0  0  0  0  0  0  0  0  0  0
  127.7250  115.8260  138.8940 F   0  0  0  0  0  0  0  0  0  0  0  0
  129.8070  116.1350  138.3630 F   0  0  0  0  0  0  0  0  0  0  0  0
  128.2980  117.8740  137.9090 C   0  0  0  0  0  0  0  0  0  0  0  0
  129.1290  118.4870  136.7950 C   0  0  0  0  0  0  0  0  0  0  0  0
  130.0420  117.6730  133.4430 C   0  0  0  0  0  0  0  0  0  0  0  0
  130.9440  116.1200  130.9980 C   0  0  0  0  0  0  0  0  0  0  0  0
  129.8400  115.5080  131.6180 N   0  0  0  0  0  0  0  0  0  0  0  0
  128.5260  115.7730  130.9890 C   0  0  0  0  0  0  0  0  0  0  0  0
  127.6950  114.4920  130.8360 C   0  0  0  0  0  0  0  0  0  0  0  0
  127.5300  113.7750  132.1630 C   0  0  0  0  0  0  0  0  0  0  0  0
  128.7390  113.8700  133.0800 C   0  0  0  0  0  0  0  0  0  0  0  0
  130.0050  114.2100  132.2860 C   0  0  0  0  0  0  0  0  0  0  0  0
  126.1590  113.7480  132.8110 C   0  0  0  0  0  0  0  0  0  0  0  0
  126.7050  112.5030  132.1770 C   0  0  0  0  0  0  0  0  0  0  0  0
  131.7090  115.4190  130.0430 C   0  0  0  0  0  0  0  0  0  0  0  0
  133.1510  113.8481  130.8450 H   0  0  0  0  0  0  0  0  0  0  0  0
  132.5822  112.8074  129.4907 H   0  0  0  0  0  0  0  0  0  0  0  0
  134.2751  112.1106  131.7220 H   0  0  0  0  0  0  0  0  0  0  0  0
  133.6597  111.0603  130.4064 H   0  0  0  0  0  0  0  0  0  0  0  0
  135.4280  111.5080  129.1950 H   0  0  0  0  0  0  0  0  0  0  0  0
  134.0040  115.8700  127.7130 H   0  0  0  0  0  0  0  0  0  0  0  0
  133.9665  117.8073  129.1184 H   0  0  0  0  0  0  0  0  0  0  0  0
  132.6882  119.0853  130.8257 H   0  0  0  0  0  0  0  0  0  0  0  0
  131.0459  120.1878  131.3805 H   0  0  0  0  0  0  0  0  0  0  0  0
  129.8898  121.4635  133.1364 H   0  0  0  0  0  0  0  0  0  0  0  0
  128.8738  115.9280  134.5648 H   0  0  0  0  0  0  0  0  0  0  0  0
  130.1910  116.2223  135.7453 H   0  0  0  0  0  0  0  0  0  0  0  0
  127.2280  115.7629  136.3682 H   0  0  0  0  0  0  0  0  0  0  0  0
  128.5929  114.6401  136.7059 H   0  0  0  0  0  0  0  0  0  0  0  0
  127.2322  118.0714  137.7218 H   0  0  0  0  0  0  0  0  0  0  0  0
  128.5914  118.3193  138.8711 H   0  0  0  0  0  0  0  0  0  0  0  0
  128.8957  119.5585  136.7083 H   0  0  0  0  0  0  0  0  0  0  0  0
  130.1987  118.3665  137.0212 H   0  0  0  0  0  0  0  0  0  0  0  0
  130.0614  116.5783  133.5490 H   0  0  0  0  0  0  0  0  0  0  0  0
  127.9691  116.4852  131.6156 H   0  0  0  0  0  0  0  0  0  0  0  0
  128.7060  116.1841  129.9847 H   0  0  0  0  0  0  0  0  0  0  0  0
  126.7008  114.7553  130.4458 H   0  0  0  0  0  0  0  0  0  0  0  0
  128.2218  113.8193  130.1432 H   0  0  0  0  0  0  0  0  0  0  0  0
  128.5618  114.6563  133.8286 H   0  0  0  0  0  0  0  0  0  0  0  0
  128.8840  112.8963  133.5709 H   0  0  0  0  0  0  0  0  0  0  0  0
  130.8639  114.2587  132.9715 H   0  0  0  0  0  0  0  0  0  0  0  0
  130.1788  113.4313  131.5287 H   0  0  0  0  0  0  0  0  0  0  0  0
  126.0676  113.8122  133.9053 H   0  0  0  0  0  0  0  0  0  0  0  0
  125.2358  114.3354  132.6981 H   0  0  0  0  0  0  0  0  0  0  0  0
  127.0131  111.6558  132.8073 H   0  0  0  0  0  0  0  0  0  0  0  0
  126.3463  111.8026  131.4083 H   0  0  0  0  0  0  0  0  0  0  0  0
  131.4474  114.3771  129.8063 H   0  0  0  0  0  0  0  0  0  0  0  0
  1  2  2  0
  2  3  2  0
  2  4  1  0
  4  5  1  0
  5  6  1  0
  2  7  1  0
  7  8  1  0
  8  9  2  0
  9 10  1  0
 10 11  2  0
 11 12  1  0
 12 13  2  0
 13 14  1  0
 14 15  2  0
 15 16  1  0
 16 17  1  0
 17 18  1  0
 18 19  1  0
 19 20  1  0
 20 21  1  0
 20 22  1  0
 20 23  1  0
 23 24  1  0
 16 25  2  0
 11 26  1  0
 26 27  1  0
 27 28  1  0
 28 29  1  0
 29 30  1  0
 30 31  1  0
 31 32  1  0
 30 33  1  0
 33 34  1  0
 26 35  2  0
 35  8  1  0
 25 12  1  0
 32 27  1  0
 24 17  1  0
 34 30  1  0
  4 36  1  0
  4 37  1  0
  5 38  1  0
  5 39  1  0
  6 40  1  0
  7 41  1  0
  9 42  1  0
 10 43  1  0
 13 44  1  0
 14 45  1  0
 18 46  1  0
 18 47  1  0
 19 48  1  0
 19 49  1  0
 23 50  1  0
 23 51  1  0
 24 52  1  0
 24 53  1  0
 25 54  1  0
 28 55  1  0
 28 56  1  0
 29 57  1  0
 29 58  1  0
 31 59  1  0
 31 60  1  0
 32 61  1  0
 32 62  1  0
 33 63  1  0
 33 64  1  0
 34 65  1  0
 34 66  1  0
 35 67  1  0
M  END
$$$$

     RDKit          3D

 67 71  0  0  0  0  0  0  0  0999 V2000
  134.5200  112.8320  127.6150 O   0  0  0  0  0  0  0  0  0  0  0  0
  133.6820  113.4360  128.6260 S   0  0  0  0  0  6  0  0  0  0  0  0
  132.3460  112.9410  128.8850 O   0  0  0  0  0  0  0  0  0  0  0  0
  134.5610  113.4680  130.1730 C   0  0  0  0  0  0  0  0  0  0  0  0
  136.0530  113.4180  129.9220 C   0  0  0  0  0  0  0  0  0  0  0  0
  136.4580  114.6300  129.2920 O   0  0  0  0  0  0  0  0  0  0  0  0
  133.4880  115.0910  128.3210 N   0  0  0  0  0  0  0  0  0  0  0  0
  132.8160  115.8600  129.3180 C   0  0  0  0  0  0  0  0  0  0  0  0
  133.1960  117.1730  129.5440 C   0  0  0  0  0  0  0  0  0  0  0  0
  132.5060  117.9290  130.4880 C   0  0  0  0  0  0  0  0  0  0  0  0
  131.4150  117.3930  131.2080 C   0  0  0  0  0  0  0  0  0  0  0  0
  130.7870  118.2480  132.2380 C   0  0  0  0  0  0  0  0  0  0  0  0
  130.6620  119.6240  132.0540 C   0  0  0  0  0  0  0  0  0  0  0  0
  130.0500  120.3690  133.0440 C   0  0  0  0  0  0  0  0  0  0  0  0
  129.5600  119.8470  134.1890 N   0  0  0  0  0  0  0  0  0  0  0  0
  129.6820  118.5180  134.3870 C   0  0  0  0  0  0  0  0  0  0  0  0
  129.1820  117.9280  135.5740 N   0  0  0  0  0  0  0  0  0  0  0  0
  130.2370  117.1950  136.2940 C   0  0  0  0  0  0  0  0  0  0  0  0
  129.6100  116.4220  137.4420 C   0  0  0  0  0  0  0  0  0  0  0  0
  128.8180  117.3620  138.3230 C   0  0  0  0  0  0  0  0  0  0  0  0
  128.1920  116.6440  139.2920 F   0  0  0  0  0  0  0  0  0  0  0  0
  129.6740  118.1980  138.9690 F   0  0  0  0  0  0  0  0  0  0  0  0
  127.7950  118.1760  137.5640 C   0  0  0  0  0  0  0  0  0  0  0  0
  128.4730  118.9080  136.4180 C   0  0  0  0  0  0  0  0  0  0  0  0
  130.2770  117.7000  133.4240 C   0  0  0  0  0  0  0  0  0  0  0  0
  131.0010  116.0530  130.9540 C   0  0  0  0  0  0  0  0  0  0  0  0
  129.8930  115.4860  131.6080 N   0  0  0  0  0  0  0  0  0  0  0  0
  128.5760  115.7640  130.9920 C   0  0  0  0  0  0  0  0  0  0  0  0
  127.7130  114.5000  130.8880 C   0  0  0  0  0  0  0  0  0  0  0  0
  127.5510  113.8250  132.2380 C   0  0  0  0  0  0  0  0  0  0  0  0
  128.7760  113.9170  133.1330 C   0  0  0  0  0  0  0  0  0  0  0  0
  130.0380  114.2040  132.3110 C   0  0  0  0  0  0  0  0  0  0  0  0
  126.1910  113.8500  132.9060 C   0  0  0  0  0  0  0  0  0  0  0  0
  126.6970  112.5740  132.3010 C   0  0  0  0  0  0  0  0  0  0  0  0
  131.7310  115.3090  130.0050 C   0  0  0  0  0  0  0  0  0  0  0  0
  134.3134  114.3935  130.7136 H   0  0  0  0  0  0  0  0  0  0  0  0
  134.2665  112.5948  130.7737 H   0  0  0  0  0  0  0  0  0  0  0  0
  136.5843  113.3040  130.8784 H   0  0  0  0  0  0  0  0  0  0  0  0
  136.2922  112.5633  129.2722 H   0  0  0  0  0  0  0  0  0  0  0  0
  135.7590  115.2880  129.4620 H   0  0  0  0  0  0  0  0  0  0  0  0
  134.3850  115.4750  128.0150 H   0  0  0  0  0  0  0  0  0  0  0  0
  134.0338  117.6135  128.9837 H   0  0  0  0  0  0  0  0  0  0  0  0
  132.8173  118.9669  130.6774 H   0  0  0  0  0  0  0  0  0  0  0  0
  131.0420  120.1061  131.1412 H   0  0  0  0  0  0  0  0  0  0  0  0
  129.9562  121.4541  132.8899 H   0  0  0  0  0  0  0  0  0  0  0  0
  130.7340  116.4949  135.6064 H   0  0  0  0  0  0  0  0  0  0  0  0
  130.9796  117.9050  136.6870 H   0  0  0  0  0  0  0  0  0  0  0  0
  128.9398  115.6488  137.0382 H   0  0  0  0  0  0  0  0  0  0  0  0
  130.4050  115.9502  138.0381 H   0  0  0  0  0  0  0  0  0  0  0  0
  127.0195  117.5069  137.1629 H   0  0  0  0  0  0  0  0  0  0  0  0
  127.3347  118.9085  138.2433 H   0  0  0  0  0  0  0  0  0  0  0  0
  127.7162  119.4331  135.8168 H   0  0  0  0  0  0  0  0  0  0  0  0
  129.1893  119.6410  136.8176 H   0  0  0  0  0  0  0  0  0  0  0  0
  130.3462  116.6159  133.5973 H   0  0  0  0  0  0  0  0  0  0  0  0
  128.0459  116.5066  131.6065 H   0  0  0  0  0  0  0  0  0  0  0  0
  128.7497  116.1420  129.9737 H   0  0  0  0  0  0  0  0  0  0  0  0
  126.7195  114.7759  130.5047 H   0  0  0  0  0  0  0  0  0  0  0  0
  128.2132  113.7954  130.2074 H   0  0  0  0  0  0  0  0  0  0  0  0
  128.6291  114.7282  133.8613 H   0  0  0  0  0  0  0  0  0  0  0  0
  128.9057  112.9541  133.6488 H   0  0  0  0  0  0  0  0  0  0  0  0
  130.9080  114.2520  132.9824 H   0  0  0  0  0  0  0  0  0  0  0  0
  130.1823  113.4000  131.5743 H   0  0  0  0  0  0  0  0  0  0  0  0
  126.1180  113.9481  133.9992 H   0  0  0  0  0  0  0  0  0  0  0  0
  125.2805  114.4562  132.7894 H   0  0  0  0  0  0  0  0  0  0  0  0
  126.9946  111.7382  132.9512 H   0  0  0  0  0  0  0  0  0  0  0  0
  126.3102  111.8604  131.5586 H   0  0  0  0  0  0  0  0  0  0  0  0
  131.4392  114.2684  129.8001 H   0  0  0  0  0  0  0  0  0  0  0  0
  1  2  2  0
  2  3  2  0
  2  4  1  0
  4  5  1  0
  5  6  1  0
  2  7  1  0
  7  8  1  0
  8  9  2  0
  9 10  1  0
 10 11  2  0
 11 12  1  0
 12 13  2  0
 13 14  1  0
 14 15  2  0
 15 16  1  0
 16 17  1  0
 17 18  1  0
 18 19  1  0
 19 20  1  0
 20 21  1  0
 20 22  1  0
 20 23  1  0
 23 24  1  0
 16 25  2  0
 11 26  1  0
 26 27  1  0
 27 28  1  0
 28 29  1  0
 29 30  1  0
 30 31  1  0
 31 32  1  0
 30 33  1  0
 33 34  1  0
 26 35  2  0
 35  8  1  0
 25 12  1  0
 32 27  1  0
 24 17  1  0
 34 30  1  0
  4 36  1  0
  4 37  1  0
  5 38  1  0
  5 39  1  0
  6 40  1  0
  7 41  1  0
  9 42  1  0
 10 43  1  0
 13 44  1  0
 14 45  1  0
 18 46  1  0
 18 47  1  0
 19 48  1  0
 19 49  1  0
 23 50  1  0
 23 51  1  0
 24 52  1  0
 24 53  1  0
 25 54  1  0
 28 55  1  0
 28 56  1  0
 29 57  1  0
 29 58  1  0
 31 59  1  0
 31 60  1  0
 32 61  1  0
 32 62  1  0
 33 63  1  0
 33 64  1  0
 34 65  1  0
 34 66  1  0
 35 67  1  0
M  END
$$$$

     RDKit          3D

 67 71  0  0  0  0  0  0  0  0999 V2000
  130.4910  119.1360  138.9470 O   0  0  0  0  0  0  0  0  0  0  0  0
  129.5550  118.2580  138.2830 S   0  0  0  0  0  6  0  0  0  0  0  0
  129.9780  116.9840  137.7380 O   0  0  0  0  0  0  0  0  0  0  0  0
  128.1710  117.9560  139.3600 C   0  0  0  0  0  0  0  0  0  0  0  0
  127.5160  116.6380  139.0050 C   0  0  0  0  0  0  0  0  0  0  0  0
  126.9890  116.7240  137.6840 O   0  0  0  0  0  0  0  0  0  0  0  0
  128.8030  119.0620  136.9940 N   0  0  0  0  0  0  0  0  0  0  0  0
  129.3940  118.9120  135.7040 C   0  0  0  0  0  0  0  0  0  0  0  0
  130.4590  119.7200  135.3400 C   0  0  0  0  0  0  0  0  0  0  0  0
  131.0580  119.5370  134.0970 C   0  0  0  0  0  0  0  0  0  0  0  0
  130.6180  118.5340  133.2050 C   0  0  0  0  0  0  0  0  0  0  0  0
  131.2700  118.4590  131.8800 C   0  0  0  0  0  0  0  0  0  0  0  0
  131.5760  119.6130  131.1610 C   0  0  0  0  0  0  0  0  0  0  0  0
  132.2010  119.4810  129.9360 C   0  0  0  0  0  0  0  0  0  0  0  0
  132.5390  118.2950  129.3840 N   0  0  0  0  0  0  0  0  0  0  0  0
  132.2400  117.1680  130.0620 C   0  0  0  0  0  0  0  0  0  0  0  0
  132.5770  115.9030  129.5200 N   0  0  0  0  0  0  0  0  0  0  0  0
  134.0260  115.6530  129.6080 C   0  0  0  0  0  0  0  0  0  0  0  0
  134.3580  114.3850  128.8390 C   0  0  0  0  0  0  0  0  0  0  0  0
  133.5130  113.2390  129.3490 C   0  0  0  0  0  0  0  0  0  0  0  0
  133.7570  112.1350  128.5950 F   0  0  0  0  0  0  0  0  0  0  0  0
  133.9040  112.9220  130.6120 F   0  0  0  0  0  0  0  0  0  0  0  0
  132.0310  113.5350  129.3380 C   0  0  0  0  0  0  0  0  0  0  0  0
  131.7630  114.8210  130.1000 C   0  0  0  0  0  0  0  0  0  0  0  0
  131.6210  117.2250  131.3130 C   0  0  0  0  0  0  0  0  0  0  0  0
  129.5440  117.6790  133.5910 C   0  0  0  0  0  0  0  0  0  0  0  0
  129.0980  116.6350  132.7620 N   0  0  0  0  0  0  0  0  0  0  0  0
  129.6530  115.2960  133.0660 C   0  0  0  0  0  0  0  0  0  0  0  0
  128.5650  114.2140  133.0790 C   0  0  0  0  0  0  0  0  0  0  0  0
  127.7820  114.1970  131.7780 C   0  0  0  0  0  0  0  0  0  0  0  0
  127.5750  115.5690  131.1560 C   0  0  0  0  0  0  0  0  0  0  0  0
  127.7410  116.6780  132.2020 C   0  0  0  0  0  0  0  0  0  0  0  0
  127.9550  113.0200  130.8390 C   0  0  0  0  0  0  0  0  0  0  0  0
  126.6890  113.1590  131.6290 C   0  0  0  0  0  0  0  0  0  0  0  0
  128.9480  117.9010  134.8490 C   0  0  0  0  0  0  0  0  0  0  0  0
  128.5216  117.9195  140.4020 H   0  0  0  0  0  0  0  0  0  0  0  0
  127.4375  118.7671  139.2411 H   0  0  0  0  0  0  0  0  0  0  0  0
  128.2616  115.8307  139.0530 H   0  0  0  0  0  0  0  0  0  0  0  0
  126.7048  116.4222  139.7159 H   0  0  0  0  0  0  0  0  0  0  0  0
  126.0490  116.9720  137.7660 H   0  0  0  0  0  0  0  0  0  0  0  0
  127.7990  118.8720  137.0310 H   0  0  0  0  0  0  0  0  0  0  0  0
  130.8270  120.4974  136.0257 H   0  0  0  0  0  0  0  0  0  0  0  0
  131.8937  120.1888  133.8024 H   0  0  0  0  0  0  0  0  0  0  0  0
  131.3254  120.6070  131.5600 H   0  0  0  0  0  0  0  0  0  0  0  0
  132.4380  120.3975  129.3758 H   0  0  0  0  0  0  0  0  0  0  0  0
  134.5736  116.5020  129.1729 H   0  0  0  0  0  0  0  0  0  0  0  0
  134.3191  115.5355  130.6617 H   0  0  0  0  0  0  0  0  0  0  0  0
  134.1527  114.5423  127.7698 H   0  0  0  0  0  0  0  0  0  0  0  0
  135.4215  114.1427  128.9811 H   0  0  0  0  0  0  0  0  0  0  0  0
  131.6877  113.6468  128.2989 H   0  0  0  0  0  0  0  0  0  0  0  0
  131.4893  112.7064  129.8176 H   0  0  0  0  0  0  0  0  0  0  0  0
  130.6967  115.0799  130.0223 H   0  0  0  0  0  0  0  0  0  0  0  0
  132.0264  114.6860  131.1594 H   0  0  0  0  0  0  0  0  0  0  0  0
  131.4069  116.2939  131.8582 H   0  0  0  0  0  0  0  0  0  0  0  0
  130.4006  115.0391  132.3011 H   0  0  0  0  0  0  0  0  0  0  0  0
  130.1066  115.3348  134.0674 H   0  0  0  0  0  0  0  0  0  0  0  0
  129.0391  113.2320  133.2238 H   0  0  0  0  0  0  0  0  0  0  0  0
  127.8667  114.4363  133.8994 H   0  0  0  0  0  0  0  0  0  0  0  0
  128.3148  115.7162  130.3554 H   0  0  0  0  0  0  0  0  0  0  0  0
  126.5534  115.6195  130.7512 H   0  0  0  0  0  0  0  0  0  0  0  0
  127.5728  117.6559  131.7272 H   0  0  0  0  0  0  0  0  0  0  0  0
  127.0099  116.5274  133.0099 H   0  0  0  0  0  0  0  0  0  0  0  0
  127.9434  113.1795  129.7507 H   0  0  0  0  0  0  0  0  0  0  0  0
  128.7103  112.2297  130.7165 H   0  0  0  0  0  0  0  0  0  0  0  0
  125.7498  113.4201  131.1193 H   0  0  0  0  0  0  0  0  0  0  0  0
  126.1337  112.5122  132.3242 H   0  0  0  0  0  0  0  0  0  0  0  0
  128.1105  117.2620  135.1656 H   0  0  0  0  0  0  0  0  0  0  0  0
  1  2  2  0
  2  3  2  0
  2  4  1  0
  4  5  1  0
  5  6  1  0
  2  7  1  0
  7  8  1  0
  8  9  2  0
  9 10  1  0
 10 11  2  0
 11 12  1  0
 12 13  2  0
 13 14  1  0
 14 15  2  0
 15 16  1  0
 16 17  1  0
 17 18  1  0
 18 19  1  0
 19 20  1  0
 20 21  1  0
 20 22  1  0
 20 23  1  0
 23 24  1  0
 16 25  2  0
 11 26  1  0
 26 27  1  0
 27 28  1  0
 28 29  1  0
 29 30  1  0
 30 31  1  0
 31 32  1  0
 30 33  1  0
 33 34  1  0
 26 35  2  0
 35  8  1  0
 25 12  1  0
 32 27  1  0
 24 17  1  0
 34 30  1  0
  4 36  1  0
  4 37  1  0
  5 38  1  0
  5 39  1  0
  6 40  1  0
  7 41  1  0
  9 42  1  0
 10 43  1  0
 13 44  1  0
 14 45  1  0
 18 46  1  0
 18 47  1  0
 19 48  1  0
 19 49  1  0
 23 50  1  0
 23 51  1  0
 24 52  1  0
 24 53  1  0
 25 54  1  0
 28 55  1  0
 28 56  1  0
 29 57  1  0
 29 58  1  0
 31 59  1  0
 31 60  1  0
 32 61  1  0
 32 62  1  0
 33 63  1  0
 33 64  1  0
 34 65  1  0
 34 66  1  0
 35 67  1  0
M  END
$$$$

     RDKit          3D

 67 71  0  0  0  0  0  0  0  0999 V2000
  133.9180  113.1610  126.9090 O   0  0  0  0  0  0  0  0  0  0  0  0
  134.1500  113.1210  128.3350 S   0  0  0  0  0  6  0  0  0  0  0  0
  133.4110  112.2150  129.1900 O   0  0  0  0  0  0  0  0  0  0  0  0
  135.8850  112.8640  128.6390 C   0  0  0  0  0  0  0  0  0  0  0  0
  136.1850  113.0500  130.1110 C   0  0  0  0  0  0  0  0  0  0  0  0
  137.3180  112.2580  130.4560 O   0  0  0  0  0  0  0  0  0  0  0  0
  133.9180  114.6560  129.0140 N   0  0  0  0  0  0  0  0  0  0  0  0
  132.7060  114.8690  129.7360 C   0  0  0  0  0  0  0  0  0  0  0  0
  131.8930  113.7900  130.0440 C   0  0  0  0  0  0  0  0  0  0  0  0
  130.7340  114.0010  130.7860 C   0  0  0  0  0  0  0  0  0  0  0  0
  130.3770  115.2870  131.2500 C   0  0  0  0  0  0  0  0  0  0  0  0
  129.0950  115.4240  131.9730 C   0  0  0  0  0  0  0  0  0  0  0  0
  127.8900  115.5540  131.2830 C   0  0  0  0  0  0  0  0  0  0  0  0
  126.7220  115.6610  132.0130 C   0  0  0  0  0  0  0  0  0  0  0  0
  126.6690  115.6500  133.3620 N   0  0  0  0  0  0  0  0  0  0  0  0
  127.8270  115.5360  134.0440 C   0  0  0  0  0  0  0  0  0  0  0  0
  127.8180  115.5190  135.4610 N   0  0  0  0  0  0  0  0  0  0  0  0
  128.8920  116.3620  136.0130 C   0  0  0  0  0  0  0  0  0  0  0  0
  128.9640  116.1520  137.5160 C   0  0  0  0  0  0  0  0  0  0  0  0
  127.6110  116.4130  138.1370 C   0  0  0  0  0  0  0  0  0  0  0  0
  127.6690  116.1370  139.4670 F   0  0  0  0  0  0  0  0  0  0  0  0
  127.3220  117.7390  138.0430 F   0  0  0  0  0  0  0  0  0  0  0  0
  126.4960  115.6090  137.5070 C   0  0  0  0  0  0  0  0  0  0  0  0
  126.4870  115.8410  136.0060 C   0  0  0  0  0  0  0  0  0  0  0  0
  129.0460  115.4090  133.3740 C   0  0  0  0  0  0  0  0  0  0  0  0
  131.2300  116.3930  130.9640 C   0  0  0  0  0  0  0  0  0  0  0  0
  130.9470  117.6850  131.4400 N   0  0  0  0  0  0  0  0  0  0  0  0
  130.3390  117.7490  132.7890 C   0  0  0  0  0  0  0  0  0  0  0  0
  131.0080  118.8130  133.6700 C   0  0  0  0  0  0  0  0  0  0  0  0
  130.9960  120.1760  133.0010 C   0  0  0  0  0  0  0  0  0  0  0  0
  131.1610  120.1320  131.4900 C   0  0  0  0  0  0  0  0  0  0  0  0
  131.8020  118.8120  131.0450 C   0  0  0  0  0  0  0  0  0  0  0  0
  130.1120  121.2630  133.5790 C   0  0  0  0  0  0  0  0  0  0  0  0
  131.5980  121.3390  133.7640 C   0  0  0  0  0  0  0  0  0  0  0  0
  132.3860  116.1490  130.1950 C   0  0  0  0  0  0  0  0  0  0  0  0
  136.1605  111.8427  128.3372 H   0  0  0  0  0  0  0  0  0  0  0  0
  136.4660  113.5943  128.0567 H   0  0  0  0  0  0  0  0  0  0  0  0
  136.4003  114.1097  130.3127 H   0  0  0  0  0  0  0  0  0  0  0  0
  135.3167  112.7383  130.7100 H   0  0  0  0  0  0  0  0  0  0  0  0
  137.6890  111.9110  129.6240 H   0  0  0  0  0  0  0  0  0  0  0  0
  134.7680  114.9250  129.5140 H   0  0  0  0  0  0  0  0  0  0  0  0
  132.1604  112.7779  129.7060 H   0  0  0  0  0  0  0  0  0  0  0  0
  130.0808  113.1464  131.0164 H   0  0  0  0  0  0  0  0  0  0  0  0
  127.8700  115.5709  130.1833 H   0  0  0  0  0  0  0  0  0  0  0  0
  125.7761  115.7614  131.4606 H   0  0  0  0  0  0  0  0  0  0  0  0
  129.8523  116.0822  135.5553 H   0  0  0  0  0  0  0  0  0  0  0  0
  128.6825  117.4198  135.7956 H   0  0  0  0  0  0  0  0  0  0  0  0
  129.2677  115.1157  137.7254 H   0  0  0  0  0  0  0  0  0  0  0  0
  129.6997  116.8487  137.9443 H   0  0  0  0  0  0  0  0  0  0  0  0
  126.6548  114.5399  137.7114 H   0  0  0  0  0  0  0  0  0  0  0  0
  125.5319  115.9255  137.9317 H   0  0  0  0  0  0  0  0  0  0  0  0
  125.7307  115.1940  135.5377 H   0  0  0  0  0  0  0  0  0  0  0  0
  126.2442  116.8929  135.7947 H   0  0  0  0  0  0  0  0  0  0  0  0
  129.9759  115.2962  133.9508 H   0  0  0  0  0  0  0  0  0  0  0  0
  129.2713  117.9927  132.6863 H   0  0  0  0  0  0  0  0  0  0  0  0
  130.4785  116.7706  133.2719 H   0  0  0  0  0  0  0  0  0  0  0  0
  130.4662  118.8787  134.6251 H   0  0  0  0  0  0  0  0  0  0  0  0
  132.0549  118.5177  133.8336 H   0  0  0  0  0  0  0  0  0  0  0  0
  130.1725  120.2291  131.0173 H   0  0  0  0  0  0  0  0  0  0  0  0
  131.8173  120.9604  131.1850 H   0  0  0  0  0  0  0  0  0  0  0  0
  131.9209  118.8143  129.9514 H   0  0  0  0  0  0  0  0  0  0  0  0
  132.7862  118.7065  131.5249 H   0  0  0  0  0  0  0  0  0  0  0  0
  129.6052  121.9728  132.9087 H   0  0  0  0  0  0  0  0  0  0  0  0
  129.2443  121.2796  134.2549 H   0  0  0  0  0  0  0  0  0  0  0  0
  132.1794  122.1044  133.2292 H   0  0  0  0  0  0  0  0  0  0  0  0
  132.2679  121.4342  134.6313 H   0  0  0  0  0  0  0  0  0  0  0  0
  133.0534  116.9884  129.9500 H   0  0  0  0  0  0  0  0  0  0  0  0
  1  2  2  0
  2  3  2  0
  2  4  1  0
  4  5  1  0
  5  6  1  0
  2  7  1  0
  7  8  1  0
  8  9  2  0
  9 10  1  0
 10 11  2  0
 11 12  1  0
 12 13  2  0
 13 14  1  0
 14 15  2  0
 15 16  1  0
 16 17  1  0
 17 18  1  0
 18 19  1  0
 19 20  1  0
 20 21  1  0
 20 22  1  0
 20 23  1  0
 23 24  1  0
 16 25  2  0
 11 26  1  0
 26 27  1  0
 27 28  1  0
 28 29  1  0
 29 30  1  0
 30 31  1  0
 31 32  1  0
 30 33  1  0
 33 34  1  0
 26 35  2  0
 35  8  1  0
 25 12  1  0
 32 27  1  0
 24 17  1  0
 34 30  1  0
  4 36  1  0
  4 37  1  0
  5 38  1  0
  5 39  1  0
  6 40  1  0
  7 41  1  0
  9 42  1  0
 10 43  1  0
 13 44  1  0
 14 45  1  0
 18 46  1  0
 18 47  1  0
 19 48  1  0
 19 49  1  0
 23 50  1  0
 23 51  1  0
 24 52  1  0
 24 53  1  0
 25 54  1  0
 28 55  1  0
 28 56  1  0
 29 57  1  0
 29 58  1  0
 31 59  1  0
 31 60  1  0
 32 61  1  0
 32 62  1  0
 33 63  1  0
 33 64  1  0
 34 65  1  0
 34 66  1  0
 35 67  1  0
M  END
$$$$

     RDKit          3D

 67 71  0  0  0  0  0  0  0  0999 V2000
  127.0950  117.4190  137.5530 O   0  0  0  0  0  0  0  0  0  0  0  0
  128.1460  118.3060  137.9960 S   0  0  0  0  0  6  0  0  0  0  0  0
  128.1190  118.9010  139.3170 O   0  0  0  0  0  0  0  0  0  0  0  0
  129.7190  117.4980  137.7950 C   0  0  0  0  0  0  0  0  0  0  0  0
  129.5700  116.0110  138.0320 C   0  0  0  0  0  0  0  0  0  0  0  0
  129.1210  115.3930  136.8280 O   0  0  0  0  0  0  0  0  0  0  0  0
  128.3060  119.6130  136.9280 N   0  0  0  0  0  0  0  0  0  0  0  0
  129.0460  119.3830  135.7300 C   0  0  0  0  0  0  0  0  0  0  0  0
  130.1490  120.1720  135.4440 C   0  0  0  0  0  0  0  0  0  0  0  0
  130.8920  119.9120  134.2950 C   0  0  0  0  0  0  0  0  0  0  0  0
  130.5590  118.8510  133.4240 C   0  0  0  0  0  0  0  0  0  0  0  0
  131.3640  118.6940  132.1940 C   0  0  0  0  0  0  0  0  0  0  0  0
  132.0800  119.7650  131.6600 C   0  0  0  0  0  0  0  0  0  0  0  0
  132.8280  119.5530  130.5180 C   0  0  0  0  0  0  0  0  0  0  0  0
  132.9140  118.3660  129.8800 N   0  0  0  0  0  0  0  0  0  0  0  0
  132.2190  117.3230  130.3780 C   0  0  0  0  0  0  0  0  0  0  0  0
  132.2810  116.0590  129.7390 N   0  0  0  0  0  0  0  0  0  0  0  0
  133.6740  115.6630  129.4710 C   0  0  0  0  0  0  0  0  0  0  0  0
  133.6770  114.4090  128.6140 C   0  0  0  0  0  0  0  0  0  0  0  0
  132.8580  113.3270  129.2830 C   0  0  0  0  0  0  0  0  0  0  0  0
  132.7970  112.2440  128.4660 F   0  0  0  0  0  0  0  0  0  0  0  0
  133.4990  112.9110  130.4080 F   0  0  0  0  0  0  0  0  0  0  0  0
  131.4550  113.7680  129.6350 C   0  0  0  0  0  0  0  0  0  0  0  0
  131.5140  115.0350  130.4710 C   0  0  0  0  0  0  0  0  0  0  0  0
  131.4520  117.4590  131.5370 C   0  0  0  0  0  0  0  0  0  0  0  0
  129.4450  118.0170  133.7340 C   0  0  0  0  0  0  0  0  0  0  0  0
  129.0990  116.9190  132.9280 N   0  0  0  0  0  0  0  0  0  0  0  0
  129.3760  115.5860  133.5100 C   0  0  0  0  0  0  0  0  0  0  0  0
  128.1900  114.6270  133.3350 C   0  0  0  0  0  0  0  0  0  0  0  0
  127.7790  114.5110  131.8780 C   0  0  0  0  0  0  0  0  0  0  0  0
  127.9220  115.7990  131.0840 C   0  0  0  0  0  0  0  0  0  0  0  0
  127.9520  117.0180  132.0150 C   0  0  0  0  0  0  0  0  0  0  0  0
  128.0370  113.2060  131.1510 C   0  0  0  0  0  0  0  0  0  0  0  0
  126.6370  113.5730  131.5430 C   0  0  0  0  0  0  0  0  0  0  0  0
  128.7030  118.3170  134.8960 C   0  0  0  0  0  0  0  0  0  0  0  0
  130.0886  117.6689  136.7731 H   0  0  0  0  0  0  0  0  0  0  0  0
  130.4328  117.9104  138.5233 H   0  0  0  0  0  0  0  0  0  0  0  0
  130.5407  115.5850  138.3257 H   0  0  0  0  0  0  0  0  0  0  0  0
  128.8405  115.8335  138.8359 H   0  0  0  0  0  0  0  0  0  0  0  0
  129.8150  114.7670  136.5510 H   0  0  0  0  0  0  0  0  0  0  0  0
  127.3860  120.0360  136.7900 H   0  0  0  0  0  0  0  0  0  0  0  0
  130.4343  120.9941  136.1168 H   0  0  0  0  0  0  0  0  0  0  0  0
  131.7584  120.5478  134.0603 H   0  0  0  0  0  0  0  0  0  0  0  0
  132.0499  120.7557  132.1371 H   0  0  0  0  0  0  0  0  0  0  0  0
  133.3882  120.4038  130.1028 H   0  0  0  0  0  0  0  0  0  0  0  0
  134.1919  116.4744  128.9387 H   0  0  0  0  0  0  0  0  0  0  0  0
  134.1926  115.4647  130.4206 H   0  0  0  0  0  0  0  0  0  0  0  0
  133.2433  114.6388  127.6296 H   0  0  0  0  0  0  0  0  0  0  0  0
  134.7117  114.0565  128.4910 H   0  0  0  0  0  0  0  0  0  0  0  0
  130.8905  113.9646  128.7116 H   0  0  0  0  0  0  0  0  0  0  0  0
  130.9557  112.9740  130.2097 H   0  0  0  0  0  0  0  0  0  0  0  0
  130.4937  115.4017  130.6571 H   0  0  0  0  0  0  0  0  0  0  0  0
  132.0029  114.8224  131.4332 H   0  0  0  0  0  0  0  0  0  0  0  0
  130.9118  116.5888  131.9381 H   0  0  0  0  0  0  0  0  0  0  0  0
  130.2573  115.1564  133.0112 H   0  0  0  0  0  0  0  0  0  0  0  0
  129.5538  115.7150  134.5878 H   0  0  0  0  0  0  0  0  0  0  0  0
  128.4771  113.6320  133.7058 H   0  0  0  0  0  0  0  0  0  0  0  0
  127.3369  115.0255  133.9038 H   0  0  0  0  0  0  0  0  0  0  0  0
  128.8578  115.7639  130.5070 H   0  0  0  0  0  0  0  0  0  0  0  0
  127.0574  115.8935  130.4105 H   0  0  0  0  0  0  0  0  0  0  0  0
  128.0420  117.9346  131.4136 H   0  0  0  0  0  0  0  0  0  0  0  0
  127.0223  117.0496  132.6020 H   0  0  0  0  0  0  0  0  0  0  0  0
  128.3311  113.2168  130.0911 H   0  0  0  0  0  0  0  0  0  0  0  0
  128.6887  112.3370  131.3244 H   0  0  0  0  0  0  0  0  0  0  0  0
  125.9059  113.8523  130.7701 H   0  0  0  0  0  0  0  0  0  0  0  0
  125.8401  113.0834  132.1220 H   0  0  0  0  0  0  0  0  0  0  0  0
  127.8322  117.6953  135.1513 H   0  0  0  0  0  0  0  0  0  0  0  0
  1  2  2  0
  2  3  2  0
  2  4  1  0
  4  5  1  0
  5  6  1  0
  2  7  1  0
  7  8  1  0
  8  9  2  0
  9 10  1  0
 10 11  2  0
 11 12  1  0
 12 13  2  0
 13 14  1  0
 14 15  2  0
 15 16  1  0
 16 17  1  0
 17 18  1  0
 18 19  1  0
 19 20  1  0
 20 21  1  0
 20 22  1  0
 20 23  1  0
 23 24  1  0
 16 25  2  0
 11 26  1  0
 26 27  1  0
 27 28  1  0
 28 29  1  0
 29 30  1  0
 30 31  1  0
 31 32  1  0
 30 33  1  0
 33 34  1  0
 26 35  2  0
 35  8  1  0
 25 12  1  0
 32 27  1  0
 24 17  1  0
 34 30  1  0
  4 36  1  0
  4 37  1  0
  5 38  1  0
  5 39  1  0
  6 40  1  0
  7 41  1  0
  9 42  1  0
 10 43  1  0
 13 44  1  0
 14 45  1  0
 18 46  1  0
 18 47  1  0
 19 48  1  0
 19 49  1  0
 23 50  1  0
 23 51  1  0
 24 52  1  0
 24 53  1  0
 25 54  1  0
 28 55  1  0
 28 56  1  0
 29 57  1  0
 29 58  1  0
 31 59  1  0
 31 60  1  0
 32 61  1  0
 32 62  1  0
 33 63  1  0
 33 64  1  0
 34 65  1  0
 34 66  1  0
 35 67  1  0
M  END
$$$$

