
     RDKit          3D

 70 75  0  0  0  0  0  0  0  0999 V2000
  133.1030  112.9540  130.2780 O   0  0  0  0  0  0  0  0  0  0  0  0
  133.4490  113.1550  128.8860 S   0  0  0  0  0  6  0  0  0  0  0  0
  132.7620  112.4640  127.8160 O   0  0  0  0  0  0  0  0  0  0  0  0
  135.1950  112.8440  128.7160 C   0  0  0  0  0  0  0  0  0  0  0  0
  135.9590  113.2660  129.9530 C   0  0  0  0  0  0  0  0  0  0  0  0
  137.0080  112.3490  130.2550 O   0  0  0  0  0  0  0  0  0  0  0  0
  133.3760  114.8090  128.4860 N   0  0  0  0  0  0  0  0  0  0  0  0
  132.6670  115.6280  129.4250 C   0  0  0  0  0  0  0  0  0  0  0  0
  133.1690  116.8750  129.7690 C   0  0  0  0  0  0  0  0  0  0  0  0
  132.4970  117.6450  130.7200 C   0  0  0  0  0  0  0  0  0  0  0  0
  131.3270  117.1740  131.3540 C   0  0  0  0  0  0  0  0  0  0  0  0
  130.6880  118.0670  132.3250 C   0  0  0  0  0  0  0  0  0  0  0  0
  130.6290  119.3750  132.2240 N   0  0  0  0  0  0  0  0  0  0  0  0
  129.9550  119.9050  133.3120 C   0  0  0  0  0  0  0  0  0  0  0  0
  129.6960  121.2780  133.4980 C   0  0  0  0  0  0  0  0  0  0  0  0
  129.0060  121.7070  134.6290 C   0  0  0  0  0  0  0  0  0  0  0  0
  128.5750  120.7800  135.5720 C   0  0  0  0  0  0  0  0  0  0  0  0
  128.8090  119.3940  135.4350 C   0  0  0  0  0  0  0  0  0  0  0  0
  128.3110  118.5730  136.4790 N   0  0  0  0  0  0  0  0  0  0  0  0
  129.3480  118.1680  137.4390 C   0  0  0  0  0  0  0  0  0  0  0  0
  128.6620  117.5950  138.6700 C   0  0  0  0  0  0  0  0  0  0  0  0
  127.7300  116.4750  138.2560 C   0  0  0  0  0  0  0  0  0  0  0  0
  127.0590  116.0250  139.3490 F   0  0  0  0  0  0  0  0  0  0  0  0
  128.4660  115.4230  137.8080 F   0  0  0  0  0  0  0  0  0  0  0  0
  126.7330  116.8760  137.1880 C   0  0  0  0  0  0  0  0  0  0  0  0
  127.4720  117.4670  135.9980 C   0  0  0  0  0  0  0  0  0  0  0  0
  129.5150  118.9850  134.2730 C   0  0  0  0  0  0  0  0  0  0  0  0
  129.9990  117.4080  133.7510 S   0  0  0  0  0  0  0  0  0  0  0  0
  130.8200  115.8980  131.0130 C   0  0  0  0  0  0  0  0  0  0  0  0
  129.6680  115.2770  131.5310 N   0  0  0  0  0  0  0  0  0  0  0  0
  128.4480  115.3700  130.7100 C   0  0  0  0  0  0  0  0  0  0  0  0
  127.2330  115.0040  131.5730 C   0  0  0  0  0  0  0  0  0  0  0  0
  127.4230  113.6350  132.2030 C   0  0  0  0  0  0  0  0  0  0  0  0
  128.7350  113.5060  132.9550 C   0  0  0  0  0  0  0  0  0  0  0  0
  129.9170  113.9240  132.0660 C   0  0  0  0  0  0  0  0  0  0  0  0
  126.8670  112.4210  131.4900 C   0  0  0  0  0  0  0  0  0  0  0  0
  126.2080  112.9180  132.7470 C   0  0  0  0  0  0  0  0  0  0  0  0
  131.5170  115.1420  130.0460 C   0  0  0  0  0  0  0  0  0  0  0  0
  135.3514  111.7680  128.5495 H   0  0  0  0  0  0  0  0  0  0  0  0
  135.5679  113.4315  127.8641 H   0  0  0  0  0  0  0  0  0  0  0  0
  136.3927  114.2625  129.7831 H   0  0  0  0  0  0  0  0  0  0  0  0
  135.2599  113.2839  130.8021 H   0  0  0  0  0  0  0  0  0  0  0  0
  137.6050  112.7780  130.9030 H   0  0  0  0  0  0  0  0  0  0  0  0
  132.9610  114.8730  127.5520 H   0  0  0  0  0  0  0  0  0  0  0  0
  134.0877  117.2532  129.2969 H   0  0  0  0  0  0  0  0  0  0  0  0
  132.8874  118.6397  130.9808 H   0  0  0  0  0  0  0  0  0  0  0  0
  130.0383  122.0094  132.7511 H   0  0  0  0  0  0  0  0  0  0  0  0
  128.8021  122.7778  134.7764 H   0  0  0  0  0  0  0  0  0  0  0  0
  128.0314  121.1399  136.4580 H   0  0  0  0  0  0  0  0  0  0  0  0
  129.9968  117.4042  136.9854 H   0  0  0  0  0  0  0  0  0  0  0  0
  129.9652  119.0347  137.7181 H   0  0  0  0  0  0  0  0  0  0  0  0
  129.4209  117.2027  139.3629 H   0  0  0  0  0  0  0  0  0  0  0  0
  128.0835  118.3869  139.1682 H   0  0  0  0  0  0  0  0  0  0  0  0
  126.1668  115.9902  136.8644 H   0  0  0  0  0  0  0  0  0  0  0  0
  126.0402  117.6259  137.5975 H   0  0  0  0  0  0  0  0  0  0  0  0
  128.1037  116.6962  135.5323 H   0  0  0  0  0  0  0  0  0  0  0  0
  126.7538  117.8337  135.2499 H   0  0  0  0  0  0  0  0  0  0  0  0
  128.3356  116.3970  130.3323 H   0  0  0  0  0  0  0  0  0  0  0  0
  128.5203  114.6770  129.8589 H   0  0  0  0  0  0  0  0  0  0  0  0
  127.1136  115.7551  132.3677 H   0  0  0  0  0  0  0  0  0  0  0  0
  126.3368  114.9818  130.9356 H   0  0  0  0  0  0  0  0  0  0  0  0
  128.7061  114.1529  133.8442 H   0  0  0  0  0  0  0  0  0  0  0  0
  128.8703  112.4550  133.2503 H   0  0  0  0  0  0  0  0  0  0  0  0
  130.8417  113.9285  132.6617 H   0  0  0  0  0  0  0  0  0  0  0  0
  130.0236  113.2119  131.2344 H   0  0  0  0  0  0  0  0  0  0  0  0
  126.3600  112.5372  130.5208 H   0  0  0  0  0  0  0  0  0  0  0  0
  127.2810  111.4573  131.1586 H   0  0  0  0  0  0  0  0  0  0  0  0
  125.2191  113.3970  132.6963 H   0  0  0  0  0  0  0  0  0  0  0  0
  125.9411  112.4670  133.7141 H   0  0  0  0  0  0  0  0  0  0  0  0
  131.1432  114.1435  129.7753 H   0  0  0  0  0  0  0  0  0  0  0  0
  1  2  2  0
  2  3  2  0
  2  4  1  0
  4  5  1  0
  5  6  1  0
  2  7  1  0
  7  8  1  0
  8  9  2  0
  9 10  1  0
 10 11  2  0
 11 12  1  0
 12 13  2  0
 13 14  1  0
 14 15  2  0
 15 16  1  0
 16 17  2  0
 17 18  1  0
 18 19  1  0
 19 20  1  0
 20 21  1  0
 21 22  1  0
 22 23  1  0
 22 24  1  0
 22 25  1  0
 25 26  1  0
 18 27  2  0
 27 28  1  0
 11 29  1  0
 29 30  1  0
 30 31  1  0
 31 32  1  0
 32 33  1  0
 33 34  1  0
 34 35  1  0
 33 36  1  0
 36 37  1  0
 29 38  2  0
 38  8  1  0
 28 12  1  0
 35 30  1  0
 27 14  1  0
 37 33  1  0
 26 19  1  0
  4 39  1  0
  4 40  1  0
  5 41  1  0
  5 42  1  0
  6 43  1  0
  7 44  1  0
  9 45  1  0
 10 46  1  0
 15 47  1  0
 16 48  1  0
 17 49  1  0
 20 50  1  0
 20 51  1  0
 21 52  1  0
 21 53  1  0
 25 54  1  0
 25 55  1  0
 26 56  1  0
 26 57  1  0
 31 58  1  0
 31 59  1  0
 32 60  1  0
 32 61  1  0
 34 62  1  0
 34 63  1  0
 35 64  1  0
 35 65  1  0
 36 66  1  0
 36 67  1  0
 37 68  1  0
 37 69  1  0
 38 70  1  0
M  END
$$$$

     RDKit          3D

 70 75  0  0  0  0  0  0  0  0999 V2000
  129.3310  116.9840  138.5470 O   0  0  0  0  0  0  0  0  0  0  0  0
  128.1010  117.6600  138.9030 S   0  0  0  0  0  6  0  0  0  0  0  0
  128.0290  118.5950  140.0050 O   0  0  0  0  0  0  0  0  0  0  0  0
  126.8540  116.4130  139.1520 C   0  0  0  0  0  0  0  0  0  0  0  0
  126.7110  115.5180  137.9390 C   0  0  0  0  0  0  0  0  0  0  0  0
  127.9220  114.8200  137.6610 O   0  0  0  0  0  0  0  0  0  0  0  0
  127.4650  118.4880  137.5570 N   0  0  0  0  0  0  0  0  0  0  0  0
  128.2650  118.4180  136.3700 C   0  0  0  0  0  0  0  0  0  0  0  0
  129.1610  119.4370  136.0800 C   0  0  0  0  0  0  0  0  0  0  0  0
  129.9000  119.3840  134.8980 C   0  0  0  0  0  0  0  0  0  0  0  0
  129.7450  118.3230  133.9800 C   0  0  0  0  0  0  0  0  0  0  0  0
  130.5810  118.3520  132.7770 C   0  0  0  0  0  0  0  0  0  0  0  0
  131.0020  119.4410  132.1760 N   0  0  0  0  0  0  0  0  0  0  0  0
  131.7700  119.1070  131.0710 C   0  0  0  0  0  0  0  0  0  0  0  0
  132.3940  120.0420  130.2220 C   0  0  0  0  0  0  0  0  0  0  0  0
  133.1470  119.6000  129.1380 C   0  0  0  0  0  0  0  0  0  0  0  0
  133.2810  118.2380  128.8960 C   0  0  0  0  0  0  0  0  0  0  0  0
  132.6760  117.2590  129.7140 C   0  0  0  0  0  0  0  0  0  0  0  0
  132.9010  115.9090  129.3400 N   0  0  0  0  0  0  0  0  0  0  0  0
  131.8700  114.9910  129.8440 C   0  0  0  0  0  0  0  0  0  0  0  0
  132.0150  113.6630  129.1160 C   0  0  0  0  0  0  0  0  0  0  0  0
  133.4320  113.1510  129.2760 C   0  0  0  0  0  0  0  0  0  0  0  0
  133.5770  112.0080  128.5540 F   0  0  0  0  0  0  0  0  0  0  0  0
  133.6390  112.8030  130.5740 F   0  0  0  0  0  0  0  0  0  0  0  0
  134.4910  114.1460  128.8520 C   0  0  0  0  0  0  0  0  0  0  0  0
  134.2790  115.4600  129.5870 C   0  0  0  0  0  0  0  0  0  0  0  0
  131.9140  117.7380  130.8120 C   0  0  0  0  0  0  0  0  0  0  0  0
  131.0260  116.8770  132.0230 S   0  0  0  0  0  0  0  0  0  0  0  0
  128.8240  117.2880  134.2680 C   0  0  0  0  0  0  0  0  0  0  0  0
  128.5480  116.1550  133.4800 N   0  0  0  0  0  0  0  0  0  0  0  0
  128.7630  114.8450  134.1180 C   0  0  0  0  0  0  0  0  0  0  0  0
  128.8010  113.7590  133.0340 C   0  0  0  0  0  0  0  0  0  0  0  0
  127.5410  113.8080  132.1890 C   0  0  0  0  0  0  0  0  0  0  0  0
  127.2610  115.1890  131.6240 C   0  0  0  0  0  0  0  0  0  0  0  0
  127.2760  116.2480  132.7370 C   0  0  0  0  0  0  0  0  0  0  0  0
  126.3720  112.9240  132.5690 C   0  0  0  0  0  0  0  0  0  0  0  0
  127.1890  112.6020  131.3480 C   0  0  0  0  0  0  0  0  0  0  0  0
  128.0910  117.3660  135.4720 C   0  0  0  0  0  0  0  0  0  0  0  0
  127.1334  115.7969  140.0193 H   0  0  0  0  0  0  0  0  0  0  0  0
  125.8917  116.9178  139.3226 H   0  0  0  0  0  0  0  0  0  0  0  0
  125.9114  114.7863  138.1266 H   0  0  0  0  0  0  0  0  0  0  0  0
  126.4681  116.1484  137.0709 H   0  0  0  0  0  0  0  0  0  0  0  0
  128.5450  114.9940  138.3970 H   0  0  0  0  0  0  0  0  0  0  0  0
  127.3150  119.4590  137.8450 H   0  0  0  0  0  0  0  0  0  0  0  0
  129.2875  120.2793  136.7761 H   0  0  0  0  0  0  0  0  0  0  0  0
  130.6191  120.1864  134.6765 H   0  0  0  0  0  0  0  0  0  0  0  0
  132.2864  121.1195  130.4154 H   0  0  0  0  0  0  0  0  0  0  0  0
  133.6355  120.3279  128.4736 H   0  0  0  0  0  0  0  0  0  0  0  0
  133.8812  117.9102  128.0344 H   0  0  0  0  0  0  0  0  0  0  0  0
  132.0039  114.8389  130.9252 H   0  0  0  0  0  0  0  0  0  0  0  0
  130.8691  115.4121  129.6681 H   0  0  0  0  0  0  0  0  0  0  0  0
  131.3111  112.9328  129.5417 H   0  0  0  0  0  0  0  0  0  0  0  0
  131.7950  113.8048  128.0476 H   0  0  0  0  0  0  0  0  0  0  0  0
  135.4868  113.7469  129.0952 H   0  0  0  0  0  0  0  0  0  0  0  0
  134.4181  114.3177  127.7679 H   0  0  0  0  0  0  0  0  0  0  0  0
  134.4345  115.3122  130.6659 H   0  0  0  0  0  0  0  0  0  0  0  0
  134.9941  116.2150  129.2283 H   0  0  0  0  0  0  0  0  0  0  0  0
  129.7176  114.8536  134.6645 H   0  0  0  0  0  0  0  0  0  0  0  0
  127.9443  114.6370  134.8226 H   0  0  0  0  0  0  0  0  0  0  0  0
  129.6765  113.9222  132.3884 H   0  0  0  0  0  0  0  0  0  0  0  0
  128.8663  112.7739  133.5191 H   0  0  0  0  0  0  0  0  0  0  0  0
  128.0321  115.4372  130.8798 H   0  0  0  0  0  0  0  0  0  0  0  0
  126.2652  115.1832  131.1567 H   0  0  0  0  0  0  0  0  0  0  0  0
  127.1822  117.2498  132.2926 H   0  0  0  0  0  0  0  0  0  0  0  0
  126.4342  116.0740  133.4233 H   0  0  0  0  0  0  0  0  0  0  0  0
  126.4361  112.2803  133.4587 H   0  0  0  0  0  0  0  0  0  0  0  0
  125.3030  113.0917  132.7667 H   0  0  0  0  0  0  0  0  0  0  0  0
  127.8496  111.7225  131.3454 H   0  0  0  0  0  0  0  0  0  0  0  0
  126.9630  112.4367  130.2842 H   0  0  0  0  0  0  0  0  0  0  0  0
  127.3632  116.5756  135.7078 H   0  0  0  0  0  0  0  0  0  0  0  0
  1  2  2  0
  2  3  2  0
  2  4  1  0
  4  5  1  0
  5  6  1  0
  2  7  1  0
  7  8  1  0
  8  9  2  0
  9 10  1  0
 10 11  2  0
 11 12  1  0
 12 13  2  0
 13 14  1  0
 14 15  2  0
 15 16  1  0
 16 17  2  0
 17 18  1  0
 18 19  1  0
 19 20  1  0
 20 21  1  0
 21 22  1  0
 22 23  1  0
 22 24  1  0
 22 25  1  0
 25 26  1  0
 18 27  2  0
 27 28  1  0
 11 29  1  0
 29 30  1  0
 30 31  1  0
 31 32  1  0
 32 33  1  0
 33 34  1  0
 34 35  1  0
 33 36  1  0
 36 37  1  0
 29 38  2  0
 38  8  1  0
 28 12  1  0
 35 30  1  0
 27 14  1  0
 37 33  1  0
 26 19  1  0
  4 39  1  0
  4 40  1  0
  5 41  1  0
  5 42  1  0
  6 43  1  0
  7 44  1  0
  9 45  1  0
 10 46  1  0
 15 47  1  0
 16 48  1  0
 17 49  1  0
 20 50  1  0
 20 51  1  0
 21 52  1  0
 21 53  1  0
 25 54  1  0
 25 55  1  0
 26 56  1  0
 26 57  1  0
 31 58  1  0
 31 59  1  0
 32 60  1  0
 32 61  1  0
 34 62  1  0
 34 63  1  0
 35 64  1  0
 35 65  1  0
 36 66  1  0
 36 67  1  0
 37 68  1  0
 37 69  1  0
 38 70  1  0
M  END
$$$$

     RDKit          3D

 70 75  0  0  0  0  0  0  0  0999 V2000
  135.6610  114.5910  129.7410 O   0  0  0  0  0  0  0  0  0  0  0  0
  134.4340  113.8950  129.4160 S   0  0  0  0  0  6  0  0  0  0  0  0
  133.6930  113.1400  130.4030 O   0  0  0  0  0  0  0  0  0  0  0  0
  134.7750  112.8180  128.0370 C   0  0  0  0  0  0  0  0  0  0  0  0
  133.6040  112.7510  127.0800 C   0  0  0  0  0  0  0  0  0  0  0  0
  133.4990  113.9400  126.3020 O   0  0  0  0  0  0  0  0  0  0  0  0
  133.3080  114.9650  128.7170 N   0  0  0  0  0  0  0  0  0  0  0  0
  132.5840  115.7760  129.6510 C   0  0  0  0  0  0  0  0  0  0  0  0
  133.0740  117.0240  130.0060 C   0  0  0  0  0  0  0  0  0  0  0  0
  132.3870  117.7860  130.9520 C   0  0  0  0  0  0  0  0  0  0  0  0
  131.2110  117.3060  131.5690 C   0  0  0  0  0  0  0  0  0  0  0  0
  130.5560  118.1910  132.5370 C   0  0  0  0  0  0  0  0  0  0  0  0
  130.4970  119.5000  132.4450 N   0  0  0  0  0  0  0  0  0  0  0  0
  129.8040  120.0220  133.5260 C   0  0  0  0  0  0  0  0  0  0  0  0
  129.5410  121.3920  133.7180 C   0  0  0  0  0  0  0  0  0  0  0  0
  128.8330  121.8120  134.8400 C   0  0  0  0  0  0  0  0  0  0  0  0
  128.3880  120.8780  135.7690 C   0  0  0  0  0  0  0  0  0  0  0  0
  128.6250  119.4940  135.6260 C   0  0  0  0  0  0  0  0  0  0  0  0
  128.1110  118.6640  136.6560 N   0  0  0  0  0  0  0  0  0  0  0  0
  129.0480  118.4850  137.7740 C   0  0  0  0  0  0  0  0  0  0  0  0
  128.2860  117.8810  138.9440 C   0  0  0  0  0  0  0  0  0  0  0  0
  127.6030  116.6050  138.4980 C   0  0  0  0  0  0  0  0  0  0  0  0
  126.8560  116.1160  139.5240 F   0  0  0  0  0  0  0  0  0  0  0  0
  128.5450  115.6590  138.2370 F   0  0  0  0  0  0  0  0  0  0  0  0
  126.7200  116.7790  137.2790 C   0  0  0  0  0  0  0  0  0  0  0  0
  127.5250  117.4130  136.1550 C   0  0  0  0  0  0  0  0  0  0  0  0
  129.3500  119.0940  134.4730 C   0  0  0  0  0  0  0  0  0  0  0  0
  129.8440  117.5210  133.9460 S   0  0  0  0  0  0  0  0  0  0  0  0
  130.7150  116.0290  131.2170 C   0  0  0  0  0  0  0  0  0  0  0  0
  129.5610  115.4000  131.7180 N   0  0  0  0  0  0  0  0  0  0  0  0
  128.3350  115.5450  130.9150 C   0  0  0  0  0  0  0  0  0  0  0  0
  127.1230  115.1550  131.7730 C   0  0  0  0  0  0  0  0  0  0  0  0
  127.3010  113.7560  132.3380 C   0  0  0  0  0  0  0  0  0  0  0  0
  128.6190  113.5770  133.0700 C   0  0  0  0  0  0  0  0  0  0  0  0
  129.7980  114.0200  132.1890 C   0  0  0  0  0  0  0  0  0  0  0  0
  126.7240  112.5830  131.5770 C   0  0  0  0  0  0  0  0  0  0  0  0
  126.0830  113.0300  132.8620 C   0  0  0  0  0  0  0  0  0  0  0  0
  131.4290  115.2810  130.2550 C   0  0  0  0  0  0  0  0  0  0  0  0
  135.6558  113.1965  127.4976 H   0  0  0  0  0  0  0  0  0  0  0  0
  134.9587  111.8062  128.4276 H   0  0  0  0  0  0  0  0  0  0  0  0
  133.7418  111.8931  126.4055 H   0  0  0  0  0  0  0  0  0  0  0  0
  132.6817  112.6405  127.6691 H   0  0  0  0  0  0  0  0  0  0  0  0
  132.6060  113.9570  125.8970 H   0  0  0  0  0  0  0  0  0  0  0  0
  132.6720  114.4010  128.1460 H   0  0  0  0  0  0  0  0  0  0  0  0
  133.9958  117.4097  129.5461 H   0  0  0  0  0  0  0  0  0  0  0  0
  132.7695  118.7812  131.2226 H   0  0  0  0  0  0  0  0  0  0  0  0
  129.8947  122.1292  132.9821 H   0  0  0  0  0  0  0  0  0  0  0  0
  128.6256  122.8816  134.9918 H   0  0  0  0  0  0  0  0  0  0  0  0
  127.8301  121.2312  136.6488 H   0  0  0  0  0  0  0  0  0  0  0  0
  129.8624  117.8099  137.4723 H   0  0  0  0  0  0  0  0  0  0  0  0
  129.4817  119.4535  138.0637 H   0  0  0  0  0  0  0  0  0  0  0  0
  128.9874  117.6551  139.7607 H   0  0  0  0  0  0  0  0  0  0  0  0
  127.5295  118.5972  139.2973 H   0  0  0  0  0  0  0  0  0  0  0  0
  126.3468  115.7968  136.9536 H   0  0  0  0  0  0  0  0  0  0  0  0
  125.8697  117.4292  137.5325 H   0  0  0  0  0  0  0  0  0  0  0  0
  128.3253  116.7280  135.8385 H   0  0  0  0  0  0  0  0  0  0  0  0
  126.8745  117.6181  135.2920 H   0  0  0  0  0  0  0  0  0  0  0  0
  128.2321  116.5894  130.5853 H   0  0  0  0  0  0  0  0  0  0  0  0
  128.3904  114.8903  130.0328 H   0  0  0  0  0  0  0  0  0  0  0  0
  127.0210  115.8704  132.6024 H   0  0  0  0  0  0  0  0  0  0  0  0
  126.2206  115.1733  131.1443 H   0  0  0  0  0  0  0  0  0  0  0  0
  128.6069  114.1834  133.9877 H   0  0  0  0  0  0  0  0  0  0  0  0
  128.7436  112.5121  133.3159 H   0  0  0  0  0  0  0  0  0  0  0  0
  130.7283  113.9859  132.7750 H   0  0  0  0  0  0  0  0  0  0  0  0
  129.8878  113.3450  131.3251 H   0  0  0  0  0  0  0  0  0  0  0  0
  126.2091  112.7489  130.6192 H   0  0  0  0  0  0  0  0  0  0  0  0
  127.1232  111.6306  131.1981 H   0  0  0  0  0  0  0  0  0  0  0  0
  125.0995  113.5224  132.8432 H   0  0  0  0  0  0  0  0  0  0  0  0
  125.8199  112.5389  133.8105 H   0  0  0  0  0  0  0  0  0  0  0  0
  131.0643  114.2817  129.9750 H   0  0  0  0  0  0  0  0  0  0  0  0
  1  2  2  0
  2  3  2  0
  2  4  1  0
  4  5  1  0
  5  6  1  0
  2  7  1  0
  7  8  1  0
  8  9  2  0
  9 10  1  0
 10 11  2  0
 11 12  1  0
 12 13  2  0
 13 14  1  0
 14 15  2  0
 15 16  1  0
 16 17  2  0
 17 18  1  0
 18 19  1  0
 19 20  1  0
 20 21  1  0
 21 22  1  0
 22 23  1  0
 22 24  1  0
 22 25  1  0
 25 26  1  0
 18 27  2  0
 27 28  1  0
 11 29  1  0
 29 30  1  0
 30 31  1  0
 31 32  1  0
 32 33  1  0
 33 34  1  0
 34 35  1  0
 33 36  1  0
 36 37  1  0
 29 38  2  0
 38  8  1  0
 28 12  1  0
 35 30  1  0
 27 14  1  0
 37 33  1  0
 26 19  1  0
  4 39  1  0
  4 40  1  0
  5 41  1  0
  5 42  1  0
  6 43  1  0
  7 44  1  0
  9 45  1  0
 10 46  1  0
 15 47  1  0
 16 48  1  0
 17 49  1  0
 20 50  1  0
 20 51  1  0
 21 52  1  0
 21 53  1  0
 25 54  1  0
 25 55  1  0
 26 56  1  0
 26 57  1  0
 31 58  1  0
 31 59  1  0
 32 60  1  0
 32 61  1  0
 34 62  1  0
 34 63  1  0
 35 64  1  0
 35 65  1  0
 36 66  1  0
 36 67  1  0
 37 68  1  0
 37 69  1  0
 38 70  1  0
M  END
$$$$

     RDKit          3D

 70 75  0  0  0  0  0  0  0  0999 V2000
  133.3490  112.2740  129.2310 O   0  0  0  0  0  0  0  0  0  0  0  0
  134.1490  113.1410  128.3910 S   0  0  0  0  0  6  0  0  0  0  0  0
  134.8630  112.6460  127.2340 O   0  0  0  0  0  0  0  0  0  0  0  0
  135.3140  113.9840  129.4420 C   0  0  0  0  0  0  0  0  0  0  0  0
  136.0430  113.0180  130.3530 C   0  0  0  0  0  0  0  0  0  0  0  0
  136.2770  111.7700  129.7070 O   0  0  0  0  0  0  0  0  0  0  0  0
  133.2170  114.4510  127.8280 N   0  0  0  0  0  0  0  0  0  0  0  0
  132.6860  115.3000  128.8540 C   0  0  0  0  0  0  0  0  0  0  0  0
  133.3500  116.4710  129.1920 C   0  0  0  0  0  0  0  0  0  0  0  0
  132.8520  117.2670  130.2240 C   0  0  0  0  0  0  0  0  0  0  0  0
  131.6950  116.8980  130.9450 C   0  0  0  0  0  0  0  0  0  0  0  0
  131.2450  117.8120  131.9990 C   0  0  0  0  0  0  0  0  0  0  0  0
  131.4090  119.1150  131.9900 N   0  0  0  0  0  0  0  0  0  0  0  0
  130.8640  119.6700  133.1370 C   0  0  0  0  0  0  0  0  0  0  0  0
  130.8500  121.0490  133.4260 C   0  0  0  0  0  0  0  0  0  0  0  0
  130.2740  121.5040  134.6090 C   0  0  0  0  0  0  0  0  0  0  0  0
  129.7150  120.5960  135.5020 C   0  0  0  0  0  0  0  0  0  0  0  0
  129.7040  119.2050  135.2620 C   0  0  0  0  0  0  0  0  0  0  0  0
  129.1000  118.4050  136.2660 N   0  0  0  0  0  0  0  0  0  0  0  0
  128.0020  119.0890  136.9650 C   0  0  0  0  0  0  0  0  0  0  0  0
  127.2210  118.0510  137.7580 C   0  0  0  0  0  0  0  0  0  0  0  0
  128.1640  117.2980  138.6730 C   0  0  0  0  0  0  0  0  0  0  0  0
  127.4750  116.3170  139.3150 F   0  0  0  0  0  0  0  0  0  0  0  0
  128.6140  118.1370  139.6430 F   0  0  0  0  0  0  0  0  0  0  0  0
  129.3500  116.6850  137.9550 C   0  0  0  0  0  0  0  0  0  0  0  0
  130.0720  117.7600  137.1580 C   0  0  0  0  0  0  0  0  0  0  0  0
  130.2980  118.7700  134.0490 C   0  0  0  0  0  0  0  0  0  0  0  0
  130.4900  117.1760  133.4010 S   0  0  0  0  0  0  0  0  0  0  0  0
  131.0230  115.7000  130.6100 C   0  0  0  0  0  0  0  0  0  0  0  0
  129.8590  115.1840  131.2080 N   0  0  0  0  0  0  0  0  0  0  0  0
  128.6170  115.2900  130.4240 C   0  0  0  0  0  0  0  0  0  0  0  0
  127.4160  115.0560  131.3510 C   0  0  0  0  0  0  0  0  0  0  0  0
  127.5520  113.7260  132.0700 C   0  0  0  0  0  0  0  0  0  0  0  0
  128.8820  113.5730  132.7860 C   0  0  0  0  0  0  0  0  0  0  0  0
  130.0520  113.8590  131.8310 C   0  0  0  0  0  0  0  0  0  0  0  0
  126.9040  112.4990  131.4650 C   0  0  0  0  0  0  0  0  0  0  0  0
  126.3210  113.1200  132.7040 C   0  0  0  0  0  0  0  0  0  0  0  0
  131.5470  114.9150  129.5600 C   0  0  0  0  0  0  0  0  0  0  0  0
  136.0500  114.5059  128.8127 H   0  0  0  0  0  0  0  0  0  0  0  0
  134.7586  114.6965  130.0696 H   0  0  0  0  0  0  0  0  0  0  0  0
  137.0089  113.4581  130.6418 H   0  0  0  0  0  0  0  0  0  0  0  0
  135.4160  112.8372  131.2385 H   0  0  0  0  0  0  0  0  0  0  0  0
  137.1470  111.8210  129.2590 H   0  0  0  0  0  0  0  0  0  0  0  0
  132.4690  114.0600  127.2490 H   0  0  0  0  0  0  0  0  0  0  0  0
  134.2605  116.7687  128.6512 H   0  0  0  0  0  0  0  0  0  0  0  0
  133.3715  118.2018  130.4815 H   0  0  0  0  0  0  0  0  0  0  0  0
  131.2934  121.7648  132.7182 H   0  0  0  0  0  0  0  0  0  0  0  0
  130.2610  122.5800  134.8371 H   0  0  0  0  0  0  0  0  0  0  0  0
  129.2643  120.9763  136.4306 H   0  0  0  0  0  0  0  0  0  0  0  0
  128.4113  119.8481  137.6478 H   0  0  0  0  0  0  0  0  0  0  0  0
  127.3423  119.5869  136.2392 H   0  0  0  0  0  0  0  0  0  0  0  0
  126.4500  118.5540  138.3601 H   0  0  0  0  0  0  0  0  0  0  0  0
  126.7423  117.3444  137.0640 H   0  0  0  0  0  0  0  0  0  0  0  0
  130.0403  116.2499  138.6928 H   0  0  0  0  0  0  0  0  0  0  0  0
  128.9980  115.8973  137.2726 H   0  0  0  0  0  0  0  0  0  0  0  0
  130.5001  118.5064  137.8433 H   0  0  0  0  0  0  0  0  0  0  0  0
  130.8867  117.3123  136.5699 H   0  0  0  0  0  0  0  0  0  0  0  0
  128.5477  116.2929  129.9775 H   0  0  0  0  0  0  0  0  0  0  0  0
  128.6191  114.5362  129.6229 H   0  0  0  0  0  0  0  0  0  0  0  0
  127.3685  115.8660  132.0937 H   0  0  0  0  0  0  0  0  0  0  0  0
  126.4970  115.0419  130.7467 H   0  0  0  0  0  0  0  0  0  0  0  0
  128.9221  114.2804  133.6274 H   0  0  0  0  0  0  0  0  0  0  0  0
  128.9692  112.5389  133.1507 H   0  0  0  0  0  0  0  0  0  0  0  0
  130.9967  113.8517  132.3944 H   0  0  0  0  0  0  0  0  0  0  0  0
  130.0882  113.0855  131.0497 H   0  0  0  0  0  0  0  0  0  0  0  0
  126.3683  112.5760  130.5073 H   0  0  0  0  0  0  0  0  0  0  0  0
  127.2516  111.4922  131.1902 H   0  0  0  0  0  0  0  0  0  0  0  0
  125.3587  113.6504  132.6519 H   0  0  0  0  0  0  0  0  0  0  0  0
  126.0660  112.7539  133.7094 H   0  0  0  0  0  0  0  0  0  0  0  0
  131.0432  113.9746  129.2918 H   0  0  0  0  0  0  0  0  0  0  0  0
  1  2  2  0
  2  3  2  0
  2  4  1  0
  4  5  1  0
  5  6  1  0
  2  7  1  0
  7  8  1  0
  8  9  2  0
  9 10  1  0
 10 11  2  0
 11 12  1  0
 12 13  2  0
 13 14  1  0
 14 15  2  0
 15 16  1  0
 16 17  2  0
 17 18  1  0
 18 19  1  0
 19 20  1  0
 20 21  1  0
 21 22  1  0
 22 23  1  0
 22 24  1  0
 22 25  1  0
 25 26  1  0
 18 27  2  0
 27 28  1  0
 11 29  1  0
 29 30  1  0
 30 31  1  0
 31 32  1  0
 32 33  1  0
 33 34  1  0
 34 35  1  0
 33 36  1  0
 36 37  1  0
 29 38  2  0
 38  8  1  0
 28 12  1  0
 35 30  1  0
 27 14  1  0
 37 33  1  0
 26 19  1  0
  4 39  1  0
  4 40  1  0
  5 41  1  0
  5 42  1  0
  6 43  1  0
  7 44  1  0
  9 45  1  0
 10 46  1  0
 15 47  1  0
 16 48  1  0
 17 49  1  0
 20 50  1  0
 20 51  1  0
 21 52  1  0
 21 53  1  0
 25 54  1  0
 25 55  1  0
 26 56  1  0
 26 57  1  0
 31 58  1  0
 31 59  1  0
 32 60  1  0
 32 61  1  0
 34 62  1  0
 34 63  1  0
 35 64  1  0
 35 65  1  0
 36 66  1  0
 36 67  1  0
 37 68  1  0
 37 69  1  0
 38 70  1  0
M  END
$$$$

     RDKit          3D

 70 75  0  0  0  0  0  0  0  0999 V2000
  132.6420  112.7970  129.2630 O   0  0  0  0  0  0  0  0  0  0  0  0
  133.7560  113.4280  128.5860 S   0  0  0  0  0  6  0  0  0  0  0  0
  134.3800  112.8390  127.4200 O   0  0  0  0  0  0  0  0  0  0  0  0
  135.0250  113.7280  129.8010 C   0  0  0  0  0  0  0  0  0  0  0  0
  136.2930  112.9640  129.4820 C   0  0  0  0  0  0  0  0  0  0  0  0
  136.9550  112.5360  130.6690 O   0  0  0  0  0  0  0  0  0  0  0  0
  133.3570  115.0210  128.1370 N   0  0  0  0  0  0  0  0  0  0  0  0
  132.6750  115.7800  129.1440 C   0  0  0  0  0  0  0  0  0  0  0  0
  133.1750  117.0140  129.5350 C   0  0  0  0  0  0  0  0  0  0  0  0
  132.5310  117.7230  130.5500 C   0  0  0  0  0  0  0  0  0  0  0  0
  131.3910  117.2050  131.2000 C   0  0  0  0  0  0  0  0  0  0  0  0
  130.7790  118.0360  132.2410 C   0  0  0  0  0  0  0  0  0  0  0  0
  130.6830  119.3460  132.2030 N   0  0  0  0  0  0  0  0  0  0  0  0
  130.0510  119.8100  133.3450 C   0  0  0  0  0  0  0  0  0  0  0  0
  129.7680  121.1650  133.6060 C   0  0  0  0  0  0  0  0  0  0  0  0
  129.1250  121.5250  134.7860 C   0  0  0  0  0  0  0  0  0  0  0  0
  128.7640  120.5470  135.7060 C   0  0  0  0  0  0  0  0  0  0  0  0
  129.0240  119.1750  135.4950 C   0  0  0  0  0  0  0  0  0  0  0  0
  128.5980  118.2960  136.5230 N   0  0  0  0  0  0  0  0  0  0  0  0
  127.7450  117.2040  136.0320 C   0  0  0  0  0  0  0  0  0  0  0  0
  127.6340  116.1550  137.1280 C   0  0  0  0  0  0  0  0  0  0  0  0
  127.1350  116.8040  138.4020 C   0  0  0  0  0  0  0  0  0  0  0  0
  127.1170  115.8790  139.3980 F   0  0  0  0  0  0  0  0  0  0  0  0
  125.8430  117.1940  138.2300 F   0  0  0  0  0  0  0  0  0  0  0  0
  127.9600  117.9950  138.8420 C   0  0  0  0  0  0  0  0  0  0  0  0
  128.0630  118.9940  137.7000 C   0  0  0  0  0  0  0  0  0  0  0  0
  129.6810  118.8370  134.2830 C   0  0  0  0  0  0  0  0  0  0  0  0
  130.1770  117.2970  133.6670 S   0  0  0  0  0  0  0  0  0  0  0  0
  130.8850  115.9420  130.8120 C   0  0  0  0  0  0  0  0  0  0  0  0
  129.7620  115.2800  131.3380 N   0  0  0  0  0  0  0  0  0  0  0  0
  128.5220  115.3630  130.5470 C   0  0  0  0  0  0  0  0  0  0  0  0
  127.3350  114.9450  131.4260 C   0  0  0  0  0  0  0  0  0  0  0  0
  127.5720  113.5650  132.0160 C   0  0  0  0  0  0  0  0  0  0  0  0
  128.9030  113.4490  132.7350 C   0  0  0  0  0  0  0  0  0  0  0  0
  130.0550  113.9200  131.8320 C   0  0  0  0  0  0  0  0  0  0  0  0
  127.0310  112.3570  131.2830 C   0  0  0  0  0  0  0  0  0  0  0  0
  126.3880  112.8040  132.5670 C   0  0  0  0  0  0  0  0  0  0  0  0
  131.5550  115.2470  129.7810 C   0  0  0  0  0  0  0  0  0  0  0  0
  135.2521  114.8041  129.8219 H   0  0  0  0  0  0  0  0  0  0  0  0
  134.6537  113.3862  130.7784 H   0  0  0  0  0  0  0  0  0  0  0  0
  136.0366  112.0816  128.8773 H   0  0  0  0  0  0  0  0  0  0  0  0
  136.9701  113.6324  128.9299 H   0  0  0  0  0  0  0  0  0  0  0  0
  137.2740  113.3340  131.1400 H   0  0  0  0  0  0  0  0  0  0  0  0
  132.8010  114.9610  127.2800 H   0  0  0  0  0  0  0  0  0  0  0  0
  134.0704  117.4294  129.0495 H   0  0  0  0  0  0  0  0  0  0  0  0
  132.9207  118.7070  130.8497 H   0  0  0  0  0  0  0  0  0  0  0  0
  130.0551  121.9377  132.8776 H   0  0  0  0  0  0  0  0  0  0  0  0
  128.9024  122.5826  134.9910 H   0  0  0  0  0  0  0  0  0  0  0  0
  128.2569  120.8533  136.6328 H   0  0  0  0  0  0  0  0  0  0  0  0
  126.7458  117.5937  135.7875 H   0  0  0  0  0  0  0  0  0  0  0  0
  128.1819  116.7601  135.1253 H   0  0  0  0  0  0  0  0  0  0  0  0
  126.9280  115.3716  136.8151 H   0  0  0  0  0  0  0  0  0  0  0  0
  128.6229  115.7081  137.3081 H   0  0  0  0  0  0  0  0  0  0  0  0
  127.4777  118.4753  139.7061 H   0  0  0  0  0  0  0  0  0  0  0  0
  128.9681  117.6570  139.1238 H   0  0  0  0  0  0  0  0  0  0  0  0
  127.0670  119.4005  137.4705 H   0  0  0  0  0  0  0  0  0  0  0  0
  128.7266  119.8247  137.9820 H   0  0  0  0  0  0  0  0  0  0  0  0
  128.3762  116.3961  130.1985 H   0  0  0  0  0  0  0  0  0  0  0  0
  128.5924  114.6932  129.6773 H   0  0  0  0  0  0  0  0  0  0  0  0
  127.2149  115.6724  132.2424 H   0  0  0  0  0  0  0  0  0  0  0  0
  126.4258  114.9169  130.8075 H   0  0  0  0  0  0  0  0  0  0  0  0
  128.8783  114.0711  133.6419 H   0  0  0  0  0  0  0  0  0  0  0  0
  129.0704  112.3942  132.9983 H   0  0  0  0  0  0  0  0  0  0  0  0
  130.9921  113.9321  132.4079 H   0  0  0  0  0  0  0  0  0  0  0  0
  130.1601  113.2327  130.9796 H   0  0  0  0  0  0  0  0  0  0  0  0
  126.4998  112.4857  130.3284 H   0  0  0  0  0  0  0  0  0  0  0  0
  127.4613  111.4132  130.9169 H   0  0  0  0  0  0  0  0  0  0  0  0
  125.3866  113.2590  132.5506 H   0  0  0  0  0  0  0  0  0  0  0  0
  126.1540  112.3213  133.5273 H   0  0  0  0  0  0  0  0  0  0  0  0
  131.1833  114.2588  129.4723 H   0  0  0  0  0  0  0  0  0  0  0  0
  1  2  2  0
  2  3  2  0
  2  4  1  0
  4  5  1  0
  5  6  1  0
  2  7  1  0
  7  8  1  0
  8  9  2  0
  9 10  1  0
 10 11  2  0
 11 12  1  0
 12 13  2  0
 13 14  1  0
 14 15  2  0
 15 16  1  0
 16 17  2  0
 17 18  1  0
 18 19  1  0
 19 20  1  0
 20 21  1  0
 21 22  1  0
 22 23  1  0
 22 24  1  0
 22 25  1  0
 25 26  1  0
 18 27  2  0
 27 28  1  0
 11 29  1  0
 29 30  1  0
 30 31  1  0
 31 32  1  0
 32 33  1  0
 33 34  1  0
 34 35  1  0
 33 36  1  0
 36 37  1  0
 29 38  2  0
 38  8  1  0
 28 12  1  0
 35 30  1  0
 27 14  1  0
 37 33  1  0
 26 19  1  0
  4 39  1  0
  4 40  1  0
  5 41  1  0
  5 42  1  0
  6 43  1  0
  7 44  1  0
  9 45  1  0
 10 46  1  0
 15 47  1  0
 16 48  1  0
 17 49  1  0
 20 50  1  0
 20 51  1  0
 21 52  1  0
 21 53  1  0
 25 54  1  0
 25 55  1  0
 26 56  1  0
 26 57  1  0
 31 58  1  0
 31 59  1  0
 32 60  1  0
 32 61  1  0
 34 62  1  0
 34 63  1  0
 35 64  1  0
 35 65  1  0
 36 66  1  0
 36 67  1  0
 37 68  1  0
 37 69  1  0
 38 70  1  0
M  END
$$$$

     RDKit          3D

 70 75  0  0  0  0  0  0  0  0999 V2000
  134.0280  112.0560  129.6070 O   0  0  0  0  0  0  0  0  0  0  0  0
  134.7230  112.9800  128.7350 S   0  0  0  0  0  6  0  0  0  0  0  0
  135.5820  112.5260  127.6620 O   0  0  0  0  0  0  0  0  0  0  0  0
  135.6640  114.0880  129.7650 C   0  0  0  0  0  0  0  0  0  0  0  0
  136.3870  113.3440  130.8680 C   0  0  0  0  0  0  0  0  0  0  0  0
  137.0940  112.2170  130.3600 O   0  0  0  0  0  0  0  0  0  0  0  0
  133.6250  114.0640  128.0150 N   0  0  0  0  0  0  0  0  0  0  0  0
  132.9250  114.9150  128.9330 C   0  0  0  0  0  0  0  0  0  0  0  0
  133.4480  116.1580  129.2580 C   0  0  0  0  0  0  0  0  0  0  0  0
  132.7850  116.9590  130.1890 C   0  0  0  0  0  0  0  0  0  0  0  0
  131.6010  116.5230  130.8210 C   0  0  0  0  0  0  0  0  0  0  0  0
  130.9730  117.4470  131.7700 C   0  0  0  0  0  0  0  0  0  0  0  0
  130.8890  118.7480  131.6160 N   0  0  0  0  0  0  0  0  0  0  0  0
  130.2340  119.3140  132.6980 C   0  0  0  0  0  0  0  0  0  0  0  0
  129.9580  120.6890  132.8330 C   0  0  0  0  0  0  0  0  0  0  0  0
  129.2910  121.1550  133.9620 C   0  0  0  0  0  0  0  0  0  0  0  0
  128.8990  120.2630  134.9540 C   0  0  0  0  0  0  0  0  0  0  0  0
  129.1520  118.8770  134.8700 C   0  0  0  0  0  0  0  0  0  0  0  0
  128.6940  118.0930  135.9600 N   0  0  0  0  0  0  0  0  0  0  0  0
  129.7860  117.5590  136.7860 C   0  0  0  0  0  0  0  0  0  0  0  0
  129.1920  117.0390  138.0860 C   0  0  0  0  0  0  0  0  0  0  0  0
  128.1010  116.0340  137.7780 C   0  0  0  0  0  0  0  0  0  0  0  0
  127.5180  115.6370  138.9410 F   0  0  0  0  0  0  0  0  0  0  0  0
  128.6580  114.9180  137.2380 F   0  0  0  0  0  0  0  0  0  0  0  0
  127.0340  116.5620  136.8410 C   0  0  0  0  0  0  0  0  0  0  0  0
  127.6870  117.0940  135.5750 C   0  0  0  0  0  0  0  0  0  0  0  0
  129.8340  118.4290  133.7080 C   0  0  0  0  0  0  0  0  0  0  0  0
  130.3300  116.8380  133.2400 S   0  0  0  0  0  0  0  0  0  0  0  0
  131.0710  115.2520  130.5000 C   0  0  0  0  0  0  0  0  0  0  0  0
  129.9040  114.6640  131.0200 N   0  0  0  0  0  0  0  0  0  0  0  0
  129.9140  114.3480  132.4590 C   0  0  0  0  0  0  0  0  0  0  0  0
  128.7640  113.3800  132.7700 C   0  0  0  0  0  0  0  0  0  0  0  0
  127.4410  113.9590  132.2980 C   0  0  0  0  0  0  0  0  0  0  0  0
  127.4680  114.3890  130.8430 C   0  0  0  0  0  0  0  0  0  0  0  0
  128.6600  115.3200  130.5700 C   0  0  0  0  0  0  0  0  0  0  0  0
  126.6020  114.7510  133.2780 C   0  0  0  0  0  0  0  0  0  0  0  0
  126.1610  113.3770  132.8530 C   0  0  0  0  0  0  0  0  0  0  0  0
  131.7610  114.4640  129.5540 C   0  0  0  0  0  0  0  0  0  0  0  0
  136.4045  114.6118  129.1427 H   0  0  0  0  0  0  0  0  0  0  0  0
  134.9673  114.8010  130.2300 H   0  0  0  0  0  0  0  0  0  0  0  0
  137.1018  114.0266  131.3508 H   0  0  0  0  0  0  0  0  0  0  0  0
  135.6391  112.9856  131.5906 H   0  0  0  0  0  0  0  0  0  0  0  0
  136.4670  111.6810  129.8310 H   0  0  0  0  0  0  0  0  0  0  0  0
  132.9720  113.5050  127.4590 H   0  0  0  0  0  0  0  0  0  0  0  0
  134.3774  116.5094  128.7860 H   0  0  0  0  0  0  0  0  0  0  0  0
  133.1937  117.9502  130.4351 H   0  0  0  0  0  0  0  0  0  0  0  0
  130.2692  121.3931  132.0472 H   0  0  0  0  0  0  0  0  0  0  0  0
  129.0741  122.2280  134.0695 H   0  0  0  0  0  0  0  0  0  0  0  0
  128.3719  120.6522  135.8375 H   0  0  0  0  0  0  0  0  0  0  0  0
  130.2888  116.7388  136.2526 H   0  0  0  0  0  0  0  0  0  0  0  0
  130.5232  118.3481  136.9954 H   0  0  0  0  0  0  0  0  0  0  0  0
  129.9800  116.5537  138.6806 H   0  0  0  0  0  0  0  0  0  0  0  0
  128.7664  117.8783  138.6555 H   0  0  0  0  0  0  0  0  0  0  0  0
  126.3396  115.7493  136.5814 H   0  0  0  0  0  0  0  0  0  0  0  0
  126.4810  117.3736  137.3364 H   0  0  0  0  0  0  0  0  0  0  0  0
  128.1704  116.2692  135.0309 H   0  0  0  0  0  0  0  0  0  0  0  0
  126.9297  117.5516  134.9214 H   0  0  0  0  0  0  0  0  0  0  0  0
  130.8724  113.8790  132.7262 H   0  0  0  0  0  0  0  0  0  0  0  0
  129.7875  115.2723  133.0417 H   0  0  0  0  0  0  0  0  0  0  0  0
  128.9455  112.4247  132.2557 H   0  0  0  0  0  0  0  0  0  0  0  0
  128.7159  113.2212  133.8574 H   0  0  0  0  0  0  0  0  0  0  0  0
  127.5538  113.4970  130.2051 H   0  0  0  0  0  0  0  0  0  0  0  0
  126.5382  114.9325  130.6191 H   0  0  0  0  0  0  0  0  0  0  0  0
  128.7239  115.5289  129.4919 H   0  0  0  0  0  0  0  0  0  0  0  0
  128.5228  116.2647  131.1166 H   0  0  0  0  0  0  0  0  0  0  0  0
  126.9656  114.9192  134.3024 H   0  0  0  0  0  0  0  0  0  0  0  0
  126.1415  115.7500  133.2769 H   0  0  0  0  0  0  0  0  0  0  0  0
  126.2019  112.5415  133.5673 H   0  0  0  0  0  0  0  0  0  0  0  0
  125.2443  112.9573  132.4131 H   0  0  0  0  0  0  0  0  0  0  0  0
  131.3701  113.4677  129.2999 H   0  0  0  0  0  0  0  0  0  0  0  0
  1  2  2  0
  2  3  2  0
  2  4  1  0
  4  5  1  0
  5  6  1  0
  2  7  1  0
  7  8  1  0
  8  9  2  0
  9 10  1  0
 10 11  2  0
 11 12  1  0
 12 13  2  0
 13 14  1  0
 14 15  2  0
 15 16  1  0
 16 17  2  0
 17 18  1  0
 18 19  1  0
 19 20  1  0
 20 21  1  0
 21 22  1  0
 22 23  1  0
 22 24  1  0
 22 25  1  0
 25 26  1  0
 18 27  2  0
 27 28  1  0
 11 29  1  0
 29 30  1  0
 30 31  1  0
 31 32  1  0
 32 33  1  0
 33 34  1  0
 34 35  1  0
 33 36  1  0
 36 37  1  0
 29 38  2  0
 38  8  1  0
 28 12  1  0
 35 30  1  0
 27 14  1  0
 37 33  1  0
 26 19  1  0
  4 39  1  0
  4 40  1  0
  5 41  1  0
  5 42  1  0
  6 43  1  0
  7 44  1  0
  9 45  1  0
 10 46  1  0
 15 47  1  0
 16 48  1  0
 17 49  1  0
 20 50  1  0
 20 51  1  0
 21 52  1  0
 21 53  1  0
 25 54  1  0
 25 55  1  0
 26 56  1  0
 26 57  1  0
 31 58  1  0
 31 59  1  0
 32 60  1  0
 32 61  1  0
 34 62  1  0
 34 63  1  0
 35 64  1  0
 35 65  1  0
 36 66  1  0
 36 67  1  0
 37 68  1  0
 37 69  1  0
 38 70  1  0
M  END
$$$$

     RDKit          3D

 70 75  0  0  0  0  0  0  0  0999 V2000
  133.2340  112.3370  129.2900 O   0  0  0  0  0  0  0  0  0  0  0  0
  134.2620  113.0810  128.5920 S   0  0  0  0  0  6  0  0  0  0  0  0
  135.0180  112.5080  127.4990 O   0  0  0  0  0  0  0  0  0  0  0  0
  135.4170  113.6760  129.8120 C   0  0  0  0  0  0  0  0  0  0  0  0
  135.7120  112.6230  130.8600 C   0  0  0  0  0  0  0  0  0  0  0  0
  136.9240  112.9050  131.5540 O   0  0  0  0  0  0  0  0  0  0  0  0
  133.6380  114.5500  127.9980 N   0  0  0  0  0  0  0  0  0  0  0  0
  132.9140  115.3310  128.9570 C   0  0  0  0  0  0  0  0  0  0  0  0
  133.3870  116.5820  129.3260 C   0  0  0  0  0  0  0  0  0  0  0  0
  132.7010  117.3150  130.2950 C   0  0  0  0  0  0  0  0  0  0  0  0
  131.5450  116.8040  130.9230 C   0  0  0  0  0  0  0  0  0  0  0  0
  130.8890  117.6600  131.9150 C   0  0  0  0  0  0  0  0  0  0  0  0
  130.7300  118.9590  131.8060 N   0  0  0  0  0  0  0  0  0  0  0  0
  130.0710  119.4540  132.9200 C   0  0  0  0  0  0  0  0  0  0  0  0
  129.7220  120.8060  133.1060 C   0  0  0  0  0  0  0  0  0  0  0  0
  129.0570  121.1980  134.2640 C   0  0  0  0  0  0  0  0  0  0  0  0
  128.7390  120.2540  135.2350 C   0  0  0  0  0  0  0  0  0  0  0  0
  129.0670  118.8880  135.1000 C   0  0  0  0  0  0  0  0  0  0  0  0
  128.6790  118.0460  136.1730 N   0  0  0  0  0  0  0  0  0  0  0  0
  127.8690  116.8970  135.7430 C   0  0  0  0  0  0  0  0  0  0  0  0
  127.8030  115.9020  136.8910 C   0  0  0  0  0  0  0  0  0  0  0  0
  127.2820  116.5950  138.1330 C   0  0  0  0  0  0  0  0  0  0  0  0
  127.3040  115.7220  139.1750 F   0  0  0  0  0  0  0  0  0  0  0  0
  125.9750  116.9240  137.9480 F   0  0  0  0  0  0  0  0  0  0  0  0
  128.0610  117.8390  138.5080 C   0  0  0  0  0  0  0  0  0  0  0  0
  128.1200  118.7810  137.3160 C   0  0  0  0  0  0  0  0  0  0  0  0
  129.7450  118.5160  133.9090 C   0  0  0  0  0  0  0  0  0  0  0  0
  130.3170  116.9710  133.3780 S   0  0  0  0  0  0  0  0  0  0  0  0
  131.0660  115.5240  130.5570 C   0  0  0  0  0  0  0  0  0  0  0  0
  129.9320  114.8650  131.0650 N   0  0  0  0  0  0  0  0  0  0  0  0
  129.9840  114.4720  132.4840 C   0  0  0  0  0  0  0  0  0  0  0  0
  128.8770  113.4460  132.7620 C   0  0  0  0  0  0  0  0  0  0  0  0
  127.5240  114.0000  132.3480 C   0  0  0  0  0  0  0  0  0  0  0  0
  127.5050  114.5090  130.9180 C   0  0  0  0  0  0  0  0  0  0  0  0
  128.6560  115.4980  130.6750 C   0  0  0  0  0  0  0  0  0  0  0  0
  126.6770  114.7050  133.3850 C   0  0  0  0  0  0  0  0  0  0  0  0
  126.2780  113.3410  132.8940 C   0  0  0  0  0  0  0  0  0  0  0  0
  131.7780  114.8060  129.5710 C   0  0  0  0  0  0  0  0  0  0  0  0
  136.3557  113.9529  129.3099 H   0  0  0  0  0  0  0  0  0  0  0  0
  134.9692  114.5460  130.3146 H   0  0  0  0  0  0  0  0  0  0  0  0
  134.8836  112.5959  131.5832 H   0  0  0  0  0  0  0  0  0  0  0  0
  135.8207  111.6523  130.3542 H   0  0  0  0  0  0  0  0  0  0  0  0
  137.5410  113.3290  130.9230 H   0  0  0  0  0  0  0  0  0  0  0  0
  133.0520  114.3210  127.1900 H   0  0  0  0  0  0  0  0  0  0  0  0
  134.2945  116.9922  128.8589 H   0  0  0  0  0  0  0  0  0  0  0  0
  133.0692  118.3129  130.5756 H   0  0  0  0  0  0  0  0  0  0  0  0
  129.9747  121.5509  132.3371 H   0  0  0  0  0  0  0  0  0  0  0  0
  128.7832  122.2531  134.4113 H   0  0  0  0  0  0  0  0  0  0  0  0
  128.2120  120.5847  136.1422 H   0  0  0  0  0  0  0  0  0  0  0  0
  126.8543  117.2336  135.4839 H   0  0  0  0  0  0  0  0  0  0  0  0
  128.3211  116.4249  134.8583 H   0  0  0  0  0  0  0  0  0  0  0  0
  127.1279  115.0763  136.6218 H   0  0  0  0  0  0  0  0  0  0  0  0
  128.8094  115.5044  137.0888 H   0  0  0  0  0  0  0  0  0  0  0  0
  127.5630  118.3434  139.3492 H   0  0  0  0  0  0  0  0  0  0  0  0
  129.0827  117.5562  138.8017 H   0  0  0  0  0  0  0  0  0  0  0  0
  127.1076  119.1348  137.0713 H   0  0  0  0  0  0  0  0  0  0  0  0
  128.7507  119.6508  137.5518 H   0  0  0  0  0  0  0  0  0  0  0  0
  130.9643  114.0256  132.7069 H   0  0  0  0  0  0  0  0  0  0  0  0
  129.8363  115.3577  133.1194 H   0  0  0  0  0  0  0  0  0  0  0  0
  129.0824  112.5280  132.1919 H   0  0  0  0  0  0  0  0  0  0  0  0
  128.8575  113.2259  133.8396 H   0  0  0  0  0  0  0  0  0  0  0  0
  127.6106  113.6568  130.2305 H   0  0  0  0  0  0  0  0  0  0  0  0
  126.5513  115.0278  130.7412 H   0  0  0  0  0  0  0  0  0  0  0  0
  128.6901  115.7679  129.6092 H   0  0  0  0  0  0  0  0  0  0  0  0
  128.4956  116.4057  131.2753 H   0  0  0  0  0  0  0  0  0  0  0  0
  127.0553  114.8312  134.4102 H   0  0  0  0  0  0  0  0  0  0  0  0
  126.1802  115.6845  133.4472 H   0  0  0  0  0  0  0  0  0  0  0  0
  126.3642  112.4703  133.5606 H   0  0  0  0  0  0  0  0  0  0  0  0
  125.3683  112.9115  132.4490 H   0  0  0  0  0  0  0  0  0  0  0  0
  131.4265  113.8052  129.2796 H   0  0  0  0  0  0  0  0  0  0  0  0
  1  2  2  0
  2  3  2  0
  2  4  1  0
  4  5  1  0
  5  6  1  0
  2  7  1  0
  7  8  1  0
  8  9  2  0
  9 10  1  0
 10 11  2  0
 11 12  1  0
 12 13  2  0
 13 14  1  0
 14 15  2  0
 15 16  1  0
 16 17  2  0
 17 18  1  0
 18 19  1  0
 19 20  1  0
 20 21  1  0
 21 22  1  0
 22 23  1  0
 22 24  1  0
 22 25  1  0
 25 26  1  0
 18 27  2  0
 27 28  1  0
 11 29  1  0
 29 30  1  0
 30 31  1  0
 31 32  1  0
 32 33  1  0
 33 34  1  0
 34 35  1  0
 33 36  1  0
 36 37  1  0
 29 38  2  0
 38  8  1  0
 28 12  1  0
 35 30  1  0
 27 14  1  0
 37 33  1  0
 26 19  1  0
  4 39  1  0
  4 40  1  0
  5 41  1  0
  5 42  1  0
  6 43  1  0
  7 44  1  0
  9 45  1  0
 10 46  1  0
 15 47  1  0
 16 48  1  0
 17 49  1  0
 20 50  1  0
 20 51  1  0
 21 52  1  0
 21 53  1  0
 25 54  1  0
 25 55  1  0
 26 56  1  0
 26 57  1  0
 31 58  1  0
 31 59  1  0
 32 60  1  0
 32 61  1  0
 34 62  1  0
 34 63  1  0
 35 64  1  0
 35 65  1  0
 36 66  1  0
 36 67  1  0
 37 68  1  0
 37 69  1  0
 38 70  1  0
M  END
$$$$

     RDKit          3D

 70 75  0  0  0  0  0  0  0  0999 V2000
  127.9150  118.8160  139.9830 O   0  0  0  0  0  0  0  0  0  0  0  0
  127.9680  117.9260  138.8410 S   0  0  0  0  0  6  0  0  0  0  0  0
  127.3620  116.6120  138.8630 O   0  0  0  0  0  0  0  0  0  0  0  0
  129.6800  117.7400  138.3830 C   0  0  0  0  0  0  0  0  0  0  0  0
  130.1190  116.2920  138.4460 C   0  0  0  0  0  0  0  0  0  0  0  0
  129.4510  115.5020  137.4660 O   0  0  0  0  0  0  0  0  0  0  0  0
  127.3460  118.6960  137.4560 N   0  0  0  0  0  0  0  0  0  0  0  0
  128.1710  118.5970  136.2870 C   0  0  0  0  0  0  0  0  0  0  0  0
  129.0640  119.6150  135.9850 C   0  0  0  0  0  0  0  0  0  0  0  0
  129.8280  119.5330  134.8200 C   0  0  0  0  0  0  0  0  0  0  0  0
  129.6990  118.4430  133.9320 C   0  0  0  0  0  0  0  0  0  0  0  0
  130.5600  118.4430  132.7450 C   0  0  0  0  0  0  0  0  0  0  0  0
  131.0200  119.5170  132.1450 N   0  0  0  0  0  0  0  0  0  0  0  0
  131.8000  119.1570  131.0580 C   0  0  0  0  0  0  0  0  0  0  0  0
  132.4640  120.0700  130.2150 C   0  0  0  0  0  0  0  0  0  0  0  0
  133.2260  119.6030  129.1500 C   0  0  0  0  0  0  0  0  0  0  0  0
  133.3310  118.2350  128.9190 C   0  0  0  0  0  0  0  0  0  0  0  0
  132.6870  117.2780  129.7310 C   0  0  0  0  0  0  0  0  0  0  0  0
  132.8850  115.9200  129.3710 N   0  0  0  0  0  0  0  0  0  0  0  0
  131.9090  115.0110  129.9860 C   0  0  0  0  0  0  0  0  0  0  0  0
  131.9960  113.6660  129.2800 C   0  0  0  0  0  0  0  0  0  0  0  0
  133.4240  113.1630  129.3240 C   0  0  0  0  0  0  0  0  0  0  0  0
  133.5110  112.0040  128.6200 F   0  0  0  0  0  0  0  0  0  0  0  0
  133.7480  112.8470  130.6070 F   0  0  0  0  0  0  0  0  0  0  0  0
  134.4360  114.1520  128.7830 C   0  0  0  0  0  0  0  0  0  0  0  0
  134.2820  115.4820  129.5040 C   0  0  0  0  0  0  0  0  0  0  0  0
  131.9150  117.7830  130.8100 C   0  0  0  0  0  0  0  0  0  0  0  0
  130.9820  116.9530  132.0090 S   0  0  0  0  0  0  0  0  0  0  0  0
  128.7820  117.4090  134.2320 C   0  0  0  0  0  0  0  0  0  0  0  0
  128.5310  116.2520  133.4730 N   0  0  0  0  0  0  0  0  0  0  0  0
  128.7420  114.9630  134.1550 C   0  0  0  0  0  0  0  0  0  0  0  0
  128.8110  113.8440  133.1060 C   0  0  0  0  0  0  0  0  0  0  0  0
  127.5680  113.8580  132.2340 C   0  0  0  0  0  0  0  0  0  0  0  0
  127.2890  115.2180  131.6210 C   0  0  0  0  0  0  0  0  0  0  0  0
  127.2730  116.3110  132.7020 C   0  0  0  0  0  0  0  0  0  0  0  0
  126.3990  112.9760  132.6170 C   0  0  0  0  0  0  0  0  0  0  0  0
  127.2440  112.6240  131.4230 C   0  0  0  0  0  0  0  0  0  0  0  0
  128.0240  117.5170  135.4180 C   0  0  0  0  0  0  0  0  0  0  0  0
  129.8173  118.1104  137.3564 H   0  0  0  0  0  0  0  0  0  0  0  0
  130.2911  118.3163  139.0932 H   0  0  0  0  0  0  0  0  0  0  0  0
  131.2035  116.2390  138.2696 H   0  0  0  0  0  0  0  0  0  0  0  0
  129.8650  115.8967  139.4406 H   0  0  0  0  0  0  0  0  0  0  0  0
  128.5880  115.2240  137.8400 H   0  0  0  0  0  0  0  0  0  0  0  0
  127.1770  119.6740  137.7070 H   0  0  0  0  0  0  0  0  0  0  0  0
  129.1689  120.4789  136.6578 H   0  0  0  0  0  0  0  0  0  0  0  0
  130.5455  120.3341  134.5889 H   0  0  0  0  0  0  0  0  0  0  0  0
  132.3796  121.1512  130.3993 H   0  0  0  0  0  0  0  0  0  0  0  0
  133.7452  120.3142  128.4908 H   0  0  0  0  0  0  0  0  0  0  0  0
  133.9391  117.8866  128.0712 H   0  0  0  0  0  0  0  0  0  0  0  0
  132.1395  114.8857  131.0543 H   0  0  0  0  0  0  0  0  0  0  0  0
  130.8941  115.4241  129.8896 H   0  0  0  0  0  0  0  0  0  0  0  0
  131.3374  112.9439  129.7847 H   0  0  0  0  0  0  0  0  0  0  0  0
  131.6804  113.7811  128.2326 H   0  0  0  0  0  0  0  0  0  0  0  0
  135.4519  113.7626  128.9453 H   0  0  0  0  0  0  0  0  0  0  0  0
  134.2663  114.2975  127.7060 H   0  0  0  0  0  0  0  0  0  0  0  0
  134.5338  115.3598  130.5678 H   0  0  0  0  0  0  0  0  0  0  0  0
  134.9575  116.2313  129.0655 H   0  0  0  0  0  0  0  0  0  0  0  0
  129.6847  114.9958  134.7209 H   0  0  0  0  0  0  0  0  0  0  0  0
  127.9097  114.7701  134.8479 H   0  0  0  0  0  0  0  0  0  0  0  0
  129.6987  113.9940  132.4740 H   0  0  0  0  0  0  0  0  0  0  0  0
  128.8737  112.8746  133.6222 H   0  0  0  0  0  0  0  0  0  0  0  0
  128.0733  115.4498  130.8854 H   0  0  0  0  0  0  0  0  0  0  0  0
  126.3033  115.1896  131.1336 H   0  0  0  0  0  0  0  0  0  0  0  0
  127.1798  117.2980  132.2254 H   0  0  0  0  0  0  0  0  0  0  0  0
  126.4191  116.1503  133.3765 H   0  0  0  0  0  0  0  0  0  0  0  0
  126.4499  112.3604  133.5272 H   0  0  0  0  0  0  0  0  0  0  0  0
  125.3248  113.1402  132.7876 H   0  0  0  0  0  0  0  0  0  0  0  0
  127.9119  111.7508  131.4609 H   0  0  0  0  0  0  0  0  0  0  0  0
  127.0417  112.4243  130.3604 H   0  0  0  0  0  0  0  0  0  0  0  0
  127.2979  116.7278  135.6630 H   0  0  0  0  0  0  0  0  0  0  0  0
  1  2  2  0
  2  3  2  0
  2  4  1  0
  4  5  1  0
  5  6  1  0
  2  7  1  0
  7  8  1  0
  8  9  2  0
  9 10  1  0
 10 11  2  0
 11 12  1  0
 12 13  2  0
 13 14  1  0
 14 15  2  0
 15 16  1  0
 16 17  2  0
 17 18  1  0
 18 19  1  0
 19 20  1  0
 20 21  1  0
 21 22  1  0
 22 23  1  0
 22 24  1  0
 22 25  1  0
 25 26  1  0
 18 27  2  0
 27 28  1  0
 11 29  1  0
 29 30  1  0
 30 31  1  0
 31 32  1  0
 32 33  1  0
 33 34  1  0
 34 35  1  0
 33 36  1  0
 36 37  1  0
 29 38  2  0
 38  8  1  0
 28 12  1  0
 35 30  1  0
 27 14  1  0
 37 33  1  0
 26 19  1  0
  4 39  1  0
  4 40  1  0
  5 41  1  0
  5 42  1  0
  6 43  1  0
  7 44  1  0
  9 45  1  0
 10 46  1  0
 15 47  1  0
 16 48  1  0
 17 49  1  0
 20 50  1  0
 20 51  1  0
 21 52  1  0
 21 53  1  0
 25 54  1  0
 25 55  1  0
 26 56  1  0
 26 57  1  0
 31 58  1  0
 31 59  1  0
 32 60  1  0
 32 61  1  0
 34 62  1  0
 34 63  1  0
 35 64  1  0
 35 65  1  0
 36 66  1  0
 36 67  1  0
 37 68  1  0
 37 69  1  0
 38 70  1  0
M  END
$$$$

     RDKit          3D

 70 75  0  0  0  0  0  0  0  0999 V2000
  135.0430  113.1620  127.7820 O   0  0  0  0  0  0  0  0  0  0  0  0
  134.1340  113.6890  128.7790 S   0  0  0  0  0  6  0  0  0  0  0  0
  134.5600  113.9760  130.1320 O   0  0  0  0  0  0  0  0  0  0  0  0
  132.7310  112.5940  128.8600 C   0  0  0  0  0  0  0  0  0  0  0  0
  132.2040  112.2610  127.4800 C   0  0  0  0  0  0  0  0  0  0  0  0
  130.9660  112.9180  127.2230 O   0  0  0  0  0  0  0  0  0  0  0  0
  133.3960  115.1170  128.2180 N   0  0  0  0  0  0  0  0  0  0  0  0
  132.6950  115.8690  129.2170 C   0  0  0  0  0  0  0  0  0  0  0  0
  133.1750  117.1100  129.6090 C   0  0  0  0  0  0  0  0  0  0  0  0
  132.5130  117.8130  130.6170 C   0  0  0  0  0  0  0  0  0  0  0  0
  131.3740  117.2810  131.2590 C   0  0  0  0  0  0  0  0  0  0  0  0
  130.7430  118.1070  132.2920 C   0  0  0  0  0  0  0  0  0  0  0  0
  130.6080  119.4120  132.2390 N   0  0  0  0  0  0  0  0  0  0  0  0
  129.9670  119.8710  133.3780 C   0  0  0  0  0  0  0  0  0  0  0  0
  129.6460  121.2200  133.6240 C   0  0  0  0  0  0  0  0  0  0  0  0
  128.9970  121.5760  134.8030 C   0  0  0  0  0  0  0  0  0  0  0  0
  128.6680  120.5980  135.7350 C   0  0  0  0  0  0  0  0  0  0  0  0
  128.9680  119.2320  135.5400 C   0  0  0  0  0  0  0  0  0  0  0  0
  128.5710  118.3530  136.5800 N   0  0  0  0  0  0  0  0  0  0  0  0
  127.7470  117.2320  136.1060 C   0  0  0  0  0  0  0  0  0  0  0  0
  127.6700  116.1930  137.2140 C   0  0  0  0  0  0  0  0  0  0  0  0
  127.1600  116.8430  138.4830 C   0  0  0  0  0  0  0  0  0  0  0  0
  127.1730  115.9290  139.4900 F   0  0  0  0  0  0  0  0  0  0  0  0
  125.8570  117.1950  138.3140 F   0  0  0  0  0  0  0  0  0  0  0  0
  127.9540  118.0610  138.9060 C   0  0  0  0  0  0  0  0  0  0  0  0
  128.0230  119.0490  137.7520 C   0  0  0  0  0  0  0  0  0  0  0  0
  129.6300  118.8990  134.3290 C   0  0  0  0  0  0  0  0  0  0  0  0
  130.1680  117.3670  133.7290 S   0  0  0  0  0  0  0  0  0  0  0  0
  130.8890  116.0110  130.8680 C   0  0  0  0  0  0  0  0  0  0  0  0
  129.7690  115.3350  131.3860 N   0  0  0  0  0  0  0  0  0  0  0  0
  128.5130  115.4710  130.6280 C   0  0  0  0  0  0  0  0  0  0  0  0
  127.3420  115.0220  131.5130 C   0  0  0  0  0  0  0  0  0  0  0  0
  127.5750  113.6120  132.0270 C   0  0  0  0  0  0  0  0  0  0  0  0
  128.9210  113.4460  132.7090 C   0  0  0  0  0  0  0  0  0  0  0  0
  130.0580  113.9490  131.8050 C   0  0  0  0  0  0  0  0  0  0  0  0
  127.0040  112.4470  131.2470 C   0  0  0  0  0  0  0  0  0  0  0  0
  126.3950  112.8370  132.5660 C   0  0  0  0  0  0  0  0  0  0  0  0
  131.5760  115.3230  129.8450 C   0  0  0  0  0  0  0  0  0  0  0  0
  133.0334  111.6626  129.3611 H   0  0  0  0  0  0  0  0  0  0  0  0
  131.9314  113.0999  129.4210 H   0  0  0  0  0  0  0  0  0  0  0  0
  132.9413  112.5805  126.7288 H   0  0  0  0  0  0  0  0  0  0  0  0
  132.0369  111.1751  127.4263 H   0  0  0  0  0  0  0  0  0  0  0  0
  130.8400  113.6040  127.9120 H   0  0  0  0  0  0  0  0  0  0  0  0
  132.7720  114.8500  127.4510 H   0  0  0  0  0  0  0  0  0  0  0  0
  134.0689  117.5361  129.1300 H   0  0  0  0  0  0  0  0  0  0  0  0
  132.8870  118.8029  130.9175 H   0  0  0  0  0  0  0  0  0  0  0  0
  129.9079  121.9917  132.8852 H   0  0  0  0  0  0  0  0  0  0  0  0
  128.7449  122.6290  134.9969 H   0  0  0  0  0  0  0  0  0  0  0  0
  128.1544  120.9000  136.6597 H   0  0  0  0  0  0  0  0  0  0  0  0
  126.7362  117.5907  135.8618 H   0  0  0  0  0  0  0  0  0  0  0  0
  128.1926  116.7899  135.2026 H   0  0  0  0  0  0  0  0  0  0  0  0
  126.9839  115.3873  136.9137 H   0  0  0  0  0  0  0  0  0  0  0  0
  128.6714  115.7748  137.3939 H   0  0  0  0  0  0  0  0  0  0  0  0
  127.4630  118.5374  139.7674 H   0  0  0  0  0  0  0  0  0  0  0  0
  128.9724  117.7546  139.1868 H   0  0  0  0  0  0  0  0  0  0  0  0
  127.0147  119.4248  137.5235 H   0  0  0  0  0  0  0  0  0  0  0  0
  128.6648  119.9010  138.0208 H   0  0  0  0  0  0  0  0  0  0  0  0
  128.3715  116.5217  130.3348 H   0  0  0  0  0  0  0  0  0  0  0  0
  128.5558  114.8457  129.7241 H   0  0  0  0  0  0  0  0  0  0  0  0
  127.2500  115.7084  132.3676 H   0  0  0  0  0  0  0  0  0  0  0  0
  126.4185  115.0352  130.9155 H   0  0  0  0  0  0  0  0  0  0  0  0
  128.9238  114.0222  133.6460 H   0  0  0  0  0  0  0  0  0  0  0  0
  129.0818  112.3776  132.9154 H   0  0  0  0  0  0  0  0  0  0  0  0
  131.0077  113.9228  132.3595 H   0  0  0  0  0  0  0  0  0  0  0  0
  130.1371  113.3038  130.9176 H   0  0  0  0  0  0  0  0  0  0  0  0
  126.4534  112.6284  130.3122 H   0  0  0  0  0  0  0  0  0  0  0  0
  127.4151  111.5180  130.8250 H   0  0  0  0  0  0  0  0  0  0  0  0
  125.3989  113.3027  132.5948 H   0  0  0  0  0  0  0  0  0  0  0  0
  126.1768  112.3097  133.5064 H   0  0  0  0  0  0  0  0  0  0  0  0
  131.2193  114.3297  129.5348 H   0  0  0  0  0  0  0  0  0  0  0  0
  1  2  2  0
  2  3  2  0
  2  4  1  0
  4  5  1  0
  5  6  1  0
  2  7  1  0
  7  8  1  0
  8  9  2  0
  9 10  1  0
 10 11  2  0
 11 12  1  0
 12 13  2  0
 13 14  1  0
 14 15  2  0
 15 16  1  0
 16 17  2  0
 17 18  1  0
 18 19  1  0
 19 20  1  0
 20 21  1  0
 21 22  1  0
 22 23  1  0
 22 24  1  0
 22 25  1  0
 25 26  1  0
 18 27  2  0
 27 28  1  0
 11 29  1  0
 29 30  1  0
 30 31  1  0
 31 32  1  0
 32 33  1  0
 33 34  1  0
 34 35  1  0
 33 36  1  0
 36 37  1  0
 29 38  2  0
 38  8  1  0
 28 12  1  0
 35 30  1  0
 27 14  1  0
 37 33  1  0
 26 19  1  0
  4 39  1  0
  4 40  1  0
  5 41  1  0
  5 42  1  0
  6 43  1  0
  7 44  1  0
  9 45  1  0
 10 46  1  0
 15 47  1  0
 16 48  1  0
 17 49  1  0
 20 50  1  0
 20 51  1  0
 21 52  1  0
 21 53  1  0
 25 54  1  0
 25 55  1  0
 26 56  1  0
 26 57  1  0
 31 58  1  0
 31 59  1  0
 32 60  1  0
 32 61  1  0
 34 62  1  0
 34 63  1  0
 35 64  1  0
 35 65  1  0
 36 66  1  0
 36 67  1  0
 37 68  1  0
 37 69  1  0
 38 70  1  0
M  END
$$$$

