
     RDKit          3D

 67 71  0  0  0  0  0  0  0  0999 V2000
  131.3660  120.5920  130.3910 O   0  0  0  0  0  0  0  0  0  0  0  0
  132.5060  120.6310  131.2840 S   0  0  0  0  0  6  0  0  0  0  0  0
  133.1680  121.8800  131.5910 O   0  0  0  0  0  0  0  0  0  0  0  0
  133.7200  119.4830  130.6490 C   0  0  0  0  0  0  0  0  0  0  0  0
  133.6840  119.4910  129.1320 C   0  0  0  0  0  0  0  0  0  0  0  0
  132.7890  118.4940  128.6430 O   0  0  0  0  0  0  0  0  0  0  0  0
  132.0000  119.8850  132.7060 N   0  0  0  0  0  0  0  0  0  0  0  0
  131.0160  118.8540  132.6520 C   0  0  0  0  0  0  0  0  0  0  0  0
  130.7520  118.2500  131.4290 C   0  0  0  0  0  0  0  0  0  0  0  0
  129.8190  117.2170  131.3610 C   0  0  0  0  0  0  0  0  0  0  0  0
  129.1400  116.7600  132.5100 C   0  0  0  0  0  0  0  0  0  0  0  0
  128.2040  115.6250  132.3580 C   0  0  0  0  0  0  0  0  0  0  0  0
  126.9950  115.8750  132.9530 N   0  0  0  0  0  0  0  0  0  0  0  0
  126.0880  114.8820  132.9780 C   0  0  0  0  0  0  0  0  0  0  0  0
  126.3100  113.6380  132.4310 C   0  0  0  0  0  0  0  0  0  0  0  0
  127.5280  113.4080  131.7960 C   0  0  0  0  0  0  0  0  0  0  0  0
  128.5200  114.4030  131.7120 C   0  0  0  0  0  0  0  0  0  0  0  0
  129.6860  114.1390  130.9960 N   0  0  0  0  0  0  0  0  0  0  0  0
  129.6550  114.1140  129.5330 C   0  0  0  0  0  0  0  0  0  0  0  0
  130.7650  113.2180  129.0140 C   0  0  0  0  0  0  0  0  0  0  0  0
  132.1090  113.7220  129.5000 C   0  0  0  0  0  0  0  0  0  0  0  0
  132.9610  112.6630  129.5850 F   0  0  0  0  0  0  0  0  0  0  0  0
  132.6460  114.5510  128.5630 F   0  0  0  0  0  0  0  0  0  0  0  0
  132.0890  114.4510  130.8300 C   0  0  0  0  0  0  0  0  0  0  0  0
  130.9560  113.9180  131.6870 C   0  0  0  0  0  0  0  0  0  0  0  0
  129.3750  117.4070  133.7570 C   0  0  0  0  0  0  0  0  0  0  0  0
  128.6660  117.0220  134.9160 N   0  0  0  0  0  0  0  0  0  0  0  0
  129.1350  115.8250  135.6420 C   0  0  0  0  0  0  0  0  0  0  0  0
  128.0620  115.3810  136.6450 C   0  0  0  0  0  0  0  0  0  0  0  0
  127.6880  116.5210  137.5720 C   0  0  0  0  0  0  0  0  0  0  0  0
  127.3170  117.7910  136.8280 C   0  0  0  0  0  0  0  0  0  0  0  0
  128.4060  118.1700  135.8160 C   0  0  0  0  0  0  0  0  0  0  0  0
  126.9460  116.1940  138.8490 C   0  0  0  0  0  0  0  0  0  0  0  0
  128.3840  116.6340  138.9120 C   0  0  0  0  0  0  0  0  0  0  0  0
  130.3220  118.4510  133.7950 C   0  0  0  0  0  0  0  0  0  0  0  0
  134.7212  119.7817  130.9930 H   0  0  0  0  0  0  0  0  0  0  0  0
  133.4917  118.4709  131.0144 H   0  0  0  0  0  0  0  0  0  0  0  0
  133.3485  120.4791  128.7841 H   0  0  0  0  0  0  0  0  0  0  0  0
  134.6941  119.2754  128.7535 H   0  0  0  0  0  0  0  0  0  0  0  0
  132.0140  118.4670  129.2430 H   0  0  0  0  0  0  0  0  0  0  0  0
  131.9520  120.5330  133.4920 H   0  0  0  0  0  0  0  0  0  0  0  0
  131.2754  118.5846  130.5212 H   0  0  0  0  0  0  0  0  0  0  0  0
  129.6072  116.7473  130.3892 H   0  0  0  0  0  0  0  0  0  0  0  0
  125.1183  115.0737  133.4606 H   0  0  0  0  0  0  0  0  0  0  0  0
  125.5469  112.8482  132.4938 H   0  0  0  0  0  0  0  0  0  0  0  0
  127.7200  112.4219  131.3479 H   0  0  0  0  0  0  0  0  0  0  0  0
  128.6831  113.7259  129.1943 H   0  0  0  0  0  0  0  0  0  0  0  0
  129.7995  115.1341  129.1477 H   0  0  0  0  0  0  0  0  0  0  0  0
  130.6065  112.1928  129.3800 H   0  0  0  0  0  0  0  0  0  0  0  0
  130.7522  113.2281  127.9141 H   0  0  0  0  0  0  0  0  0  0  0  0
  133.0460  114.2922  131.3487 H   0  0  0  0  0  0  0  0  0  0  0  0
  131.9387  115.5264  130.6543 H   0  0  0  0  0  0  0  0  0  0  0  0
  131.0993  112.8409  131.8581 H   0  0  0  0  0  0  0  0  0  0  0  0
  130.9465  114.4412  132.6545 H   0  0  0  0  0  0  0  0  0  0  0  0
  129.3252  115.0126  134.9251 H   0  0  0  0  0  0  0  0  0  0  0  0
  130.0637  116.0639  136.1809 H   0  0  0  0  0  0  0  0  0  0  0  0
  127.1670  115.0548  136.0950 H   0  0  0  0  0  0  0  0  0  0  0  0
  128.4634  114.5531  137.2479 H   0  0  0  0  0  0  0  0  0  0  0  0
  126.3686  117.6316  136.2939 H   0  0  0  0  0  0  0  0  0  0  0  0
  127.2145  118.6084  137.5569 H   0  0  0  0  0  0  0  0  0  0  0  0
  128.0701  119.0327  135.2220 H   0  0  0  0  0  0  0  0  0  0  0  0
  129.3299  118.4313  136.3527 H   0  0  0  0  0  0  0  0  0  0  0  0
  126.1505  116.8631  139.2089 H   0  0  0  0  0  0  0  0  0  0  0  0
  126.3832  115.3243  139.2190 H   0  0  0  0  0  0  0  0  0  0  0  0
  128.6385  117.6244  139.3174 H   0  0  0  0  0  0  0  0  0  0  0  0
  129.3053  116.2188  139.3465 H   0  0  0  0  0  0  0  0  0  0  0  0
  130.5192  118.9611  134.7494 H   0  0  0  0  0  0  0  0  0  0  0  0
  1  2  2  0
  2  3  2  0
  2  4  1  0
  4  5  1  0
  5  6  1  0
  2  7  1  0
  7  8  1  0
  8  9  2  0
  9 10  1  0
 10 11  2  0
 11 12  1  0
 12 13  2  0
 13 14  1  0
 14 15  2  0
 15 16  1  0
 16 17  2  0
 17 18  1  0
 18 19  1  0
 19 20  1  0
 20 21  1  0
 21 22  1  0
 21 23  1  0
 21 24  1  0
 24 25  1  0
 11 26  1  0
 26 27  1  0
 27 28  1  0
 28 29  1  0
 29 30  1  0
 30 31  1  0
 31 32  1  0
 30 33  1  0
 33 34  1  0
 26 35  2  0
 35  8  1  0
 17 12  1  0
 25 18  1  0
 32 27  1  0
 34 30  1  0
  4 36  1  0
  4 37  1  0
  5 38  1  0
  5 39  1  0
  6 40  1  0
  7 41  1  0
  9 42  1  0
 10 43  1  0
 14 44  1  0
 15 45  1  0
 16 46  1  0
 19 47  1  0
 19 48  1  0
 20 49  1  0
 20 50  1  0
 24 51  1  0
 24 52  1  0
 25 53  1  0
 25 54  1  0
 28 55  1  0
 28 56  1  0
 29 57  1  0
 29 58  1  0
 31 59  1  0
 31 60  1  0
 32 61  1  0
 32 62  1  0
 33 63  1  0
 33 64  1  0
 34 65  1  0
 34 66  1  0
 35 67  1  0
M  END
$$$$

     RDKit          3D

 67 71  0  0  0  0  0  0  0  0999 V2000
  131.3370  120.4340  130.2750 O   0  0  0  0  0  0  0  0  0  0  0  0
  132.4220  120.6620  131.2090 S   0  0  0  0  0  6  0  0  0  0  0  0
  132.9300  121.9940  131.4490 O   0  0  0  0  0  0  0  0  0  0  0  0
  133.7810  119.6140  130.7110 C   0  0  0  0  0  0  0  0  0  0  0  0
  133.7980  119.4830  129.2000 C   0  0  0  0  0  0  0  0  0  0  0  0
  132.8300  118.5290  128.7650 O   0  0  0  0  0  0  0  0  0  0  0  0
  131.9290  119.9650  132.6610 N   0  0  0  0  0  0  0  0  0  0  0  0
  130.9970  118.8860  132.6470 C   0  0  0  0  0  0  0  0  0  0  0  0
  130.7770  118.2130  131.4520 C   0  0  0  0  0  0  0  0  0  0  0  0
  129.8960  117.1330  131.4250 C   0  0  0  0  0  0  0  0  0  0  0  0
  129.2280  116.6970  132.5890 C   0  0  0  0  0  0  0  0  0  0  0  0
  128.3490  115.5120  132.4820 C   0  0  0  0  0  0  0  0  0  0  0  0
  127.1830  115.6750  133.1830 N   0  0  0  0  0  0  0  0  0  0  0  0
  126.3410  114.6280  133.2540 C   0  0  0  0  0  0  0  0  0  0  0  0
  126.5880  113.4130  132.6550 C   0  0  0  0  0  0  0  0  0  0  0  0
  127.7590  113.2720  131.9140 C   0  0  0  0  0  0  0  0  0  0  0  0
  128.6810  114.3270  131.7770 C   0  0  0  0  0  0  0  0  0  0  0  0
  129.7950  114.1510  130.9600 N   0  0  0  0  0  0  0  0  0  0  0  0
  131.1140  113.9380  131.5570 C   0  0  0  0  0  0  0  0  0  0  0  0
  132.1920  114.4110  130.5980 C   0  0  0  0  0  0  0  0  0  0  0  0
  132.0840  113.6610  129.2860 C   0  0  0  0  0  0  0  0  0  0  0  0
  132.5690  114.4570  128.2930 F   0  0  0  0  0  0  0  0  0  0  0  0
  132.9050  112.5760  129.3180 F   0  0  0  0  0  0  0  0  0  0  0  0
  130.6900  113.1960  128.9130 C   0  0  0  0  0  0  0  0  0  0  0  0
  129.6610  114.1430  129.5040 C   0  0  0  0  0  0  0  0  0  0  0  0
  129.4170  117.4130  133.8050 C   0  0  0  0  0  0  0  0  0  0  0  0
  128.7150  117.0480  134.9750 N   0  0  0  0  0  0  0  0  0  0  0  0
  129.2150  115.8910  135.7430 C   0  0  0  0  0  0  0  0  0  0  0  0
  128.1510  115.4520  136.7580 C   0  0  0  0  0  0  0  0  0  0  0  0
  127.7420  116.6120  137.6440 C   0  0  0  0  0  0  0  0  0  0  0  0
  127.3380  117.8440  136.8560 C   0  0  0  0  0  0  0  0  0  0  0  0
  128.4190  118.2190  135.8340 C   0  0  0  0  0  0  0  0  0  0  0  0
  127.0050  116.3090  138.9300 C   0  0  0  0  0  0  0  0  0  0  0  0
  128.4290  116.7910  138.9810 C   0  0  0  0  0  0  0  0  0  0  0  0
  130.3120  118.5030  133.8010 C   0  0  0  0  0  0  0  0  0  0  0  0
  134.7285  120.0579  131.0503 H   0  0  0  0  0  0  0  0  0  0  0  0
  133.6575  118.6182  131.1618 H   0  0  0  0  0  0  0  0  0  0  0  0
  133.5690  120.4604  128.7503 H   0  0  0  0  0  0  0  0  0  0  0  0
  134.7957  119.1425  128.8860 H   0  0  0  0  0  0  0  0  0  0  0  0
  132.4850  118.0700  129.5590 H   0  0  0  0  0  0  0  0  0  0  0  0
  131.8380  120.6490  133.4110 H   0  0  0  0  0  0  0  0  0  0  0  0
  131.2939  118.5298  130.5341 H   0  0  0  0  0  0  0  0  0  0  0  0
  129.7175  116.6087  130.4746 H   0  0  0  0  0  0  0  0  0  0  0  0
  125.4059  114.7490  133.8205 H   0  0  0  0  0  0  0  0  0  0  0  0
  125.8804  112.5772  132.7587 H   0  0  0  0  0  0  0  0  0  0  0  0
  127.9690  112.3105  131.4227 H   0  0  0  0  0  0  0  0  0  0  0  0
  131.1860  114.5053  132.4967 H   0  0  0  0  0  0  0  0  0  0  0  0
  131.2527  112.8661  131.7612 H   0  0  0  0  0  0  0  0  0  0  0  0
  132.0679  115.4882  130.4131 H   0  0  0  0  0  0  0  0  0  0  0  0
  133.1798  114.2201  131.0427 H   0  0  0  0  0  0  0  0  0  0  0  0
  130.5893  113.1835  127.8177 H   0  0  0  0  0  0  0  0  0  0  0  0
  130.5246  112.1836  129.3100 H   0  0  0  0  0  0  0  0  0  0  0  0
  129.8279  115.1578  129.1136 H   0  0  0  0  0  0  0  0  0  0  0  0
  128.6499  113.8091  129.2278 H   0  0  0  0  0  0  0  0  0  0  0  0
  129.4306  115.0600  135.0553 H   0  0  0  0  0  0  0  0  0  0  0  0
  130.1348  116.1744  136.2756 H   0  0  0  0  0  0  0  0  0  0  0  0
  127.2674  115.0821  136.2172 H   0  0  0  0  0  0  0  0  0  0  0  0
  128.5732  114.6570  137.3902 H   0  0  0  0  0  0  0  0  0  0  0  0
  126.3963  117.6394  136.3255 H   0  0  0  0  0  0  0  0  0  0  0  0
  127.2102  118.6827  137.5562 H   0  0  0  0  0  0  0  0  0  0  0  0
  128.0604  119.0505  135.2095 H   0  0  0  0  0  0  0  0  0  0  0  0
  129.3332  118.5256  136.3634 H   0  0  0  0  0  0  0  0  0  0  0  0
  126.1898  116.9676  139.2643 H   0  0  0  0  0  0  0  0  0  0  0  0
  126.4656  115.4373  139.3289 H   0  0  0  0  0  0  0  0  0  0  0  0
  128.6541  117.8017  139.3522 H   0  0  0  0  0  0  0  0  0  0  0  0
  129.3600  116.4172  139.4322 H   0  0  0  0  0  0  0  0  0  0  0  0
  130.4744  119.0660  134.7319 H   0  0  0  0  0  0  0  0  0  0  0  0
  1  2  2  0
  2  3  2  0
  2  4  1  0
  4  5  1  0
  5  6  1  0
  2  7  1  0
  7  8  1  0
  8  9  2  0
  9 10  1  0
 10 11  2  0
 11 12  1  0
 12 13  2  0
 13 14  1  0
 14 15  2  0
 15 16  1  0
 16 17  2  0
 17 18  1  0
 18 19  1  0
 19 20  1  0
 20 21  1  0
 21 22  1  0
 21 23  1  0
 21 24  1  0
 24 25  1  0
 11 26  1  0
 26 27  1  0
 27 28  1  0
 28 29  1  0
 29 30  1  0
 30 31  1  0
 31 32  1  0
 30 33  1  0
 33 34  1  0
 26 35  2  0
 35  8  1  0
 17 12  1  0
 25 18  1  0
 32 27  1  0
 34 30  1  0
  4 36  1  0
  4 37  1  0
  5 38  1  0
  5 39  1  0
  6 40  1  0
  7 41  1  0
  9 42  1  0
 10 43  1  0
 14 44  1  0
 15 45  1  0
 16 46  1  0
 19 47  1  0
 19 48  1  0
 20 49  1  0
 20 50  1  0
 24 51  1  0
 24 52  1  0
 25 53  1  0
 25 54  1  0
 28 55  1  0
 28 56  1  0
 29 57  1  0
 29 58  1  0
 31 59  1  0
 31 60  1  0
 32 61  1  0
 32 62  1  0
 33 63  1  0
 33 64  1  0
 34 65  1  0
 34 66  1  0
 35 67  1  0
M  END
$$$$

     RDKit          3D

 67 71  0  0  0  0  0  0  0  0999 V2000
  131.3010  120.1830  135.4490 O   0  0  0  0  0  0  0  0  0  0  0  0
  131.0290  121.2580  134.5160 S   0  0  0  0  0  6  0  0  0  0  0  0
  131.8140  122.4730  134.5310 O   0  0  0  0  0  0  0  0  0  0  0  0
  129.3040  121.6920  134.6910 C   0  0  0  0  0  0  0  0  0  0  0  0
  128.7110  120.9570  135.8780 C   0  0  0  0  0  0  0  0  0  0  0  0
  127.5820  121.6590  136.3940 O   0  0  0  0  0  0  0  0  0  0  0  0
  131.0820  120.5590  132.9840 N   0  0  0  0  0  0  0  0  0  0  0  0
  130.4520  119.3000  132.7600 C   0  0  0  0  0  0  0  0  0  0  0  0
  129.2350  119.0460  133.3780 C   0  0  0  0  0  0  0  0  0  0  0  0
  128.5860  117.8340  133.1440 C   0  0  0  0  0  0  0  0  0  0  0  0
  129.1330  116.8600  132.2830 C   0  0  0  0  0  0  0  0  0  0  0  0
  128.3540  115.6230  132.0500 C   0  0  0  0  0  0  0  0  0  0  0  0
  128.3830  115.2400  130.7350 N   0  0  0  0  0  0  0  0  0  0  0  0
  127.6280  114.1880  130.3700 C   0  0  0  0  0  0  0  0  0  0  0  0
  126.8410  113.4770  131.2490 C   0  0  0  0  0  0  0  0  0  0  0  0
  126.8500  113.8530  132.5900 C   0  0  0  0  0  0  0  0  0  0  0  0
  127.6270  114.9310  133.0520 C   0  0  0  0  0  0  0  0  0  0  0  0
  127.6560  115.2100  134.4170 N   0  0  0  0  0  0  0  0  0  0  0  0
  128.9350  115.2470  135.1290 C   0  0  0  0  0  0  0  0  0  0  0  0
  128.7130  114.9180  136.5940 C   0  0  0  0  0  0  0  0  0  0  0  0
  127.7440  115.9080  137.2070 C   0  0  0  0  0  0  0  0  0  0  0  0
  127.0920  115.2950  138.2340 F   0  0  0  0  0  0  0  0  0  0  0  0
  128.4410  116.9300  137.7740 F   0  0  0  0  0  0  0  0  0  0  0  0
  126.7230  116.4970  136.2540 C   0  0  0  0  0  0  0  0  0  0  0  0
  126.4230  115.5010  135.1480 C   0  0  0  0  0  0  0  0  0  0  0  0
  130.4020  117.0990  131.6830 C   0  0  0  0  0  0  0  0  0  0  0  0
  131.0120  116.1190  130.8680 N   0  0  0  0  0  0  0  0  0  0  0  0
  132.2280  116.5060  130.1250 C   0  0  0  0  0  0  0  0  0  0  0  0
  132.5360  115.4440  129.0610 C   0  0  0  0  0  0  0  0  0  0  0  0
  132.6440  114.0680  129.6890 C   0  0  0  0  0  0  0  0  0  0  0  0
  131.4450  113.7160  130.5500 C   0  0  0  0  0  0  0  0  0  0  0  0
  131.1600  114.8240  131.5720 C   0  0  0  0  0  0  0  0  0  0  0  0
  133.3060  112.9650  128.8930 C   0  0  0  0  0  0  0  0  0  0  0  0
  134.0100  113.5490  130.0870 C   0  0  0  0  0  0  0  0  0  0  0  0
  131.0360  118.3310  131.9410 C   0  0  0  0  0  0  0  0  0  0  0  0
  129.2140  122.7767  134.8501 H   0  0  0  0  0  0  0  0  0  0  0  0
  128.7616  121.4070  133.7774 H   0  0  0  0  0  0  0  0  0  0  0  0
  128.3966  119.9520  135.5599 H   0  0  0  0  0  0  0  0  0  0  0  0
  129.4741  120.8867  136.6671 H   0  0  0  0  0  0  0  0  0  0  0  0
  127.8780  122.1650  137.1800 H   0  0  0  0  0  0  0  0  0  0  0  0
  131.9680  120.7280  132.5080 H   0  0  0  0  0  0  0  0  0  0  0  0
  128.7861  119.7949  134.0471 H   0  0  0  0  0  0  0  0  0  0  0  0
  127.6260  117.6332  133.6421 H   0  0  0  0  0  0  0  0  0  0  0  0
  127.6398  113.8794  129.3142 H   0  0  0  0  0  0  0  0  0  0  0  0
  126.2229  112.6360  130.9016 H   0  0  0  0  0  0  0  0  0  0  0  0
  126.2329  113.2920  133.3073 H   0  0  0  0  0  0  0  0  0  0  0  0
  129.6208  114.5086  134.6880 H   0  0  0  0  0  0  0  0  0  0  0  0
  129.3715  116.2530  135.0430 H   0  0  0  0  0  0  0  0  0  0  0  0
  128.2994  113.9024  136.6805 H   0  0  0  0  0  0  0  0  0  0  0  0
  129.6737  114.9766  137.1265 H   0  0  0  0  0  0  0  0  0  0  0  0
  125.7974  116.7233  136.8036 H   0  0  0  0  0  0  0  0  0  0  0  0
  127.1256  117.4211  135.8135 H   0  0  0  0  0  0  0  0  0  0  0  0
  126.0269  114.5729  135.5859 H   0  0  0  0  0  0  0  0  0  0  0  0
  125.6765  115.9252  134.4604 H   0  0  0  0  0  0  0  0  0  0  0  0
  132.0657  117.4782  129.6367 H   0  0  0  0  0  0  0  0  0  0  0  0
  133.0752  116.5833  130.8224 H   0  0  0  0  0  0  0  0  0  0  0  0
  131.7285  115.4371  128.3140 H   0  0  0  0  0  0  0  0  0  0  0  0
  133.4963  115.6904  128.5845 H   0  0  0  0  0  0  0  0  0  0  0  0
  130.5638  113.5863  129.9045 H   0  0  0  0  0  0  0  0  0  0  0  0
  131.6640  112.7850  131.0933 H   0  0  0  0  0  0  0  0  0  0  0  0
  130.2310  114.5929  132.1138 H   0  0  0  0  0  0  0  0  0  0  0  0
  131.9945  114.8880  132.2858 H   0  0  0  0  0  0  0  0  0  0  0  0
  132.9075  111.9407  128.9371 H   0  0  0  0  0  0  0  0  0  0  0  0
  133.5645  112.8200  127.8337 H   0  0  0  0  0  0  0  0  0  0  0  0
  134.1254  112.9517  131.0035 H   0  0  0  0  0  0  0  0  0  0  0  0
  134.9948  114.0072  130.2610 H   0  0  0  0  0  0  0  0  0  0  0  0
  132.0163  118.5347  131.4855 H   0  0  0  0  0  0  0  0  0  0  0  0
  1  2  2  0
  2  3  2  0
  2  4  1  0
  4  5  1  0
  5  6  1  0
  2  7  1  0
  7  8  1  0
  8  9  2  0
  9 10  1  0
 10 11  2  0
 11 12  1  0
 12 13  2  0
 13 14  1  0
 14 15  2  0
 15 16  1  0
 16 17  2  0
 17 18  1  0
 18 19  1  0
 19 20  1  0
 20 21  1  0
 21 22  1  0
 21 23  1  0
 21 24  1  0
 24 25  1  0
 11 26  1  0
 26 27  1  0
 27 28  1  0
 28 29  1  0
 29 30  1  0
 30 31  1  0
 31 32  1  0
 30 33  1  0
 33 34  1  0
 26 35  2  0
 35  8  1  0
 17 12  1  0
 25 18  1  0
 32 27  1  0
 34 30  1  0
  4 36  1  0
  4 37  1  0
  5 38  1  0
  5 39  1  0
  6 40  1  0
  7 41  1  0
  9 42  1  0
 10 43  1  0
 14 44  1  0
 15 45  1  0
 16 46  1  0
 19 47  1  0
 19 48  1  0
 20 49  1  0
 20 50  1  0
 24 51  1  0
 24 52  1  0
 25 53  1  0
 25 54  1  0
 28 55  1  0
 28 56  1  0
 29 57  1  0
 29 58  1  0
 31 59  1  0
 31 60  1  0
 32 61  1  0
 32 62  1  0
 33 63  1  0
 33 64  1  0
 34 65  1  0
 34 66  1  0
 35 67  1  0
M  END
$$$$

     RDKit          3D

 67 71  0  0  0  0  0  0  0  0999 V2000
  131.4310  121.1150  130.3320 O   0  0  0  0  0  0  0  0  0  0  0  0
  132.4300  121.2260  131.3760 S   0  0  0  0  0  6  0  0  0  0  0  0
  132.9960  122.5080  131.7310 O   0  0  0  0  0  0  0  0  0  0  0  0
  133.7620  120.1100  130.9590 C   0  0  0  0  0  0  0  0  0  0  0  0
  133.6640  119.7220  129.4960 C   0  0  0  0  0  0  0  0  0  0  0  0
  134.6680  118.7670  129.1580 O   0  0  0  0  0  0  0  0  0  0  0  0
  131.7520  120.5010  132.7370 N   0  0  0  0  0  0  0  0  0  0  0  0
  130.9760  119.3140  132.5930 C   0  0  0  0  0  0  0  0  0  0  0  0
  129.7510  119.2370  133.2430 C   0  0  0  0  0  0  0  0  0  0  0  0
  128.9610  118.0990  133.0880 C   0  0  0  0  0  0  0  0  0  0  0  0
  129.3730  117.0220  132.2740 C   0  0  0  0  0  0  0  0  0  0  0  0
  128.4510  115.8740  132.1240 C   0  0  0  0  0  0  0  0  0  0  0  0
  128.3570  115.4610  130.8210 N   0  0  0  0  0  0  0  0  0  0  0  0
  127.4720  114.4910  130.5310 C   0  0  0  0  0  0  0  0  0  0  0  0
  126.6670  113.8920  131.4740 C   0  0  0  0  0  0  0  0  0  0  0  0
  126.7980  114.2950  132.8010 C   0  0  0  0  0  0  0  0  0  0  0  0
  127.7160  115.2900  133.1860 C   0  0  0  0  0  0  0  0  0  0  0  0
  127.8580  115.5950  134.5380 N   0  0  0  0  0  0  0  0  0  0  0  0
  129.1850  115.5740  135.1560 C   0  0  0  0  0  0  0  0  0  0  0  0
  129.0510  115.2880  136.6410 C   0  0  0  0  0  0  0  0  0  0  0  0
  128.1850  116.3440  137.2970 C   0  0  0  0  0  0  0  0  0  0  0  0
  127.5760  115.7890  138.3820 F   0  0  0  0  0  0  0  0  0  0  0  0
  128.9760  117.3360  137.7880 F   0  0  0  0  0  0  0  0  0  0  0  0
  127.1310  116.9690  136.4040 C   0  0  0  0  0  0  0  0  0  0  0  0
  126.6990  115.9690  135.3470 C   0  0  0  0  0  0  0  0  0  0  0  0
  130.6480  117.0790  131.6430 C   0  0  0  0  0  0  0  0  0  0  0  0
  131.1230  115.9920  130.8750 N   0  0  0  0  0  0  0  0  0  0  0  0
  132.3450  116.2000  130.0740 C   0  0  0  0  0  0  0  0  0  0  0  0
  132.5010  115.0490  129.0710 C   0  0  0  0  0  0  0  0  0  0  0  0
  132.4880  113.7100  129.7840 C   0  0  0  0  0  0  0  0  0  0  0  0
  131.2910  113.5410  130.7010 C   0  0  0  0  0  0  0  0  0  0  0  0
  131.1610  114.7330  131.6570 C   0  0  0  0  0  0  0  0  0  0  0  0
  133.0020  112.4970  129.0420 C   0  0  0  0  0  0  0  0  0  0  0  0
  133.8060  113.0750  130.1740 C   0  0  0  0  0  0  0  0  0  0  0  0
  131.4260  118.2410  131.8210 C   0  0  0  0  0  0  0  0  0  0  0  0
  134.7262  120.6069  131.1418 H   0  0  0  0  0  0  0  0  0  0  0  0
  133.6886  119.2061  131.5815 H   0  0  0  0  0  0  0  0  0  0  0  0
  132.6724  119.2864  129.3039 H   0  0  0  0  0  0  0  0  0  0  0  0
  133.8118  120.6222  128.8813 H   0  0  0  0  0  0  0  0  0  0  0  0
  134.7310  118.1250  129.8950 H   0  0  0  0  0  0  0  0  0  0  0  0
  131.4360  121.1830  133.4260 H   0  0  0  0  0  0  0  0  0  0  0  0
  129.4066  120.0683  133.8757 H   0  0  0  0  0  0  0  0  0  0  0  0
  127.9954  118.0390  133.6115 H   0  0  0  0  0  0  0  0  0  0  0  0
  127.3867  114.1587  129.4859 H   0  0  0  0  0  0  0  0  0  0  0  0
  125.9409  113.1170  131.1875 H   0  0  0  0  0  0  0  0  0  0  0  0
  126.1671  113.8229  133.5685 H   0  0  0  0  0  0  0  0  0  0  0  0
  129.7954  114.7890  134.6857 H   0  0  0  0  0  0  0  0  0  0  0  0
  129.6692  116.5515  135.0146 H   0  0  0  0  0  0  0  0  0  0  0  0
  128.5890  114.2996  136.7812 H   0  0  0  0  0  0  0  0  0  0  0  0
  130.0493  115.3025  137.1026 H   0  0  0  0  0  0  0  0  0  0  0  0
  126.2608  117.2576  137.0119 H   0  0  0  0  0  0  0  0  0  0  0  0
  127.5502  117.8599  135.9135 H   0  0  0  0  0  0  0  0  0  0  0  0
  126.2860  115.0736  135.8344 H   0  0  0  0  0  0  0  0  0  0  0  0
  125.9289  116.4200  134.7039 H   0  0  0  0  0  0  0  0  0  0  0  0
  132.2690  117.1529  129.5298 H   0  0  0  0  0  0  0  0  0  0  0  0
  133.2200  116.2271  130.7401 H   0  0  0  0  0  0  0  0  0  0  0  0
  131.6701  115.0826  128.3509 H   0  0  0  0  0  0  0  0  0  0  0  0
  133.4630  115.1625  128.5498 H   0  0  0  0  0  0  0  0  0  0  0  0
  130.3782  113.4669  130.0917 H   0  0  0  0  0  0  0  0  0  0  0  0
  131.4309  112.6267  131.2965 H   0  0  0  0  0  0  0  0  0  0  0  0
  130.2336  114.6356  132.2404 H   0  0  0  0  0  0  0  0  0  0  0  0
  132.0234  114.7513  132.3396 H   0  0  0  0  0  0  0  0  0  0  0  0
  132.5010  111.5253  129.1642 H   0  0  0  0  0  0  0  0  0  0  0  0
  133.2051  112.2608  127.9870 H   0  0  0  0  0  0  0  0  0  0  0  0
  133.8920  112.5261  131.1234 H   0  0  0  0  0  0  0  0  0  0  0  0
  134.8387  113.4361  130.2885 H   0  0  0  0  0  0  0  0  0  0  0  0
  132.4129  118.3041  131.3394 H   0  0  0  0  0  0  0  0  0  0  0  0
  1  2  2  0
  2  3  2  0
  2  4  1  0
  4  5  1  0
  5  6  1  0
  2  7  1  0
  7  8  1  0
  8  9  2  0
  9 10  1  0
 10 11  2  0
 11 12  1  0
 12 13  2  0
 13 14  1  0
 14 15  2  0
 15 16  1  0
 16 17  2  0
 17 18  1  0
 18 19  1  0
 19 20  1  0
 20 21  1  0
 21 22  1  0
 21 23  1  0
 21 24  1  0
 24 25  1  0
 11 26  1  0
 26 27  1  0
 27 28  1  0
 28 29  1  0
 29 30  1  0
 30 31  1  0
 31 32  1  0
 30 33  1  0
 33 34  1  0
 26 35  2  0
 35  8  1  0
 17 12  1  0
 25 18  1  0
 32 27  1  0
 34 30  1  0
  4 36  1  0
  4 37  1  0
  5 38  1  0
  5 39  1  0
  6 40  1  0
  7 41  1  0
  9 42  1  0
 10 43  1  0
 14 44  1  0
 15 45  1  0
 16 46  1  0
 19 47  1  0
 19 48  1  0
 20 49  1  0
 20 50  1  0
 24 51  1  0
 24 52  1  0
 25 53  1  0
 25 54  1  0
 28 55  1  0
 28 56  1  0
 29 57  1  0
 29 58  1  0
 31 59  1  0
 31 60  1  0
 32 61  1  0
 32 62  1  0
 33 63  1  0
 33 64  1  0
 34 65  1  0
 34 66  1  0
 35 67  1  0
M  END
$$$$

     RDKit          3D

 67 71  0  0  0  0  0  0  0  0999 V2000
  131.5690  121.3430  130.3100 O   0  0  0  0  0  0  0  0  0  0  0  0
  132.5440  121.2030  131.3720 S   0  0  0  0  0  6  0  0  0  0  0  0
  133.3970  122.3090  131.7500 O   0  0  0  0  0  0  0  0  0  0  0  0
  133.5750  119.8000  130.9680 C   0  0  0  0  0  0  0  0  0  0  0  0
  133.6920  119.6700  129.4610 C   0  0  0  0  0  0  0  0  0  0  0  0
  134.6760  118.6990  129.1130 O   0  0  0  0  0  0  0  0  0  0  0  0
  131.6850  120.6570  132.7140 N   0  0  0  0  0  0  0  0  0  0  0  0
  130.9020  119.4700  132.6170 C   0  0  0  0  0  0  0  0  0  0  0  0
  129.6970  119.4100  133.3050 C   0  0  0  0  0  0  0  0  0  0  0  0
  128.8990  118.2720  133.1950 C   0  0  0  0  0  0  0  0  0  0  0  0
  129.2820  117.1790  132.3900 C   0  0  0  0  0  0  0  0  0  0  0  0
  128.3530  116.0310  132.2900 C   0  0  0  0  0  0  0  0  0  0  0  0
  128.2240  115.5900  130.9990 N   0  0  0  0  0  0  0  0  0  0  0  0
  127.3270  114.6170  130.7540 C   0  0  0  0  0  0  0  0  0  0  0  0
  126.5460  114.0420  131.7320 C   0  0  0  0  0  0  0  0  0  0  0  0
  126.7140  114.4740  133.0450 C   0  0  0  0  0  0  0  0  0  0  0  0
  127.6440  115.4740  133.3840 C   0  0  0  0  0  0  0  0  0  0  0  0
  127.8230  115.8080  134.7240 N   0  0  0  0  0  0  0  0  0  0  0  0
  126.6800  116.2460  135.5270 C   0  0  0  0  0  0  0  0  0  0  0  0
  127.1620  117.1330  136.6600 C   0  0  0  0  0  0  0  0  0  0  0  0
  128.1510  116.3790  137.5260 C   0  0  0  0  0  0  0  0  0  0  0  0
  129.0020  117.2790  138.0920 F   0  0  0  0  0  0  0  0  0  0  0  0
  127.4900  115.7970  138.5630 F   0  0  0  0  0  0  0  0  0  0  0  0
  128.9590  115.3120  136.8130 C   0  0  0  0  0  0  0  0  0  0  0  0
  129.1370  115.6950  135.3550 C   0  0  0  0  0  0  0  0  0  0  0  0
  130.5380  117.2190  131.7200 C   0  0  0  0  0  0  0  0  0  0  0  0
  130.9860  116.1160  130.9580 N   0  0  0  0  0  0  0  0  0  0  0  0
  132.1860  116.3030  130.1200 C   0  0  0  0  0  0  0  0  0  0  0  0
  132.3090  115.1340  129.1340 C   0  0  0  0  0  0  0  0  0  0  0  0
  132.3080  113.8080  129.8700 C   0  0  0  0  0  0  0  0  0  0  0  0
  131.1360  113.6610  130.8220 C   0  0  0  0  0  0  0  0  0  0  0  0
  131.0380  114.8710  131.7610 C   0  0  0  0  0  0  0  0  0  0  0  0
  132.7950  112.5790  129.1360 C   0  0  0  0  0  0  0  0  0  0  0  0
  133.6330  113.1720  130.2350 C   0  0  0  0  0  0  0  0  0  0  0  0
  131.3240  118.3810  131.8510 C   0  0  0  0  0  0  0  0  0  0  0  0
  134.5756  119.9444  131.4015 H   0  0  0  0  0  0  0  0  0  0  0  0
  133.1234  118.8851  131.3791 H   0  0  0  0  0  0  0  0  0  0  0  0
  132.7197  119.3623  129.0487 H   0  0  0  0  0  0  0  0  0  0  0  0
  133.9930  120.6427  129.0448 H   0  0  0  0  0  0  0  0  0  0  0  0
  134.5410  117.9160  129.6860 H   0  0  0  0  0  0  0  0  0  0  0  0
  131.3050  121.4220  133.2720 H   0  0  0  0  0  0  0  0  0  0  0  0
  129.3745  120.2542  133.9321 H   0  0  0  0  0  0  0  0  0  0  0  0
  127.9495  118.2256  133.7484 H   0  0  0  0  0  0  0  0  0  0  0  0
  127.2116  114.2626  129.7191 H   0  0  0  0  0  0  0  0  0  0  0  0
  125.8101  113.2633  131.4828 H   0  0  0  0  0  0  0  0  0  0  0  0
  126.1027  114.0209  133.8393 H   0  0  0  0  0  0  0  0  0  0  0  0
  125.9817  116.8109  134.8919 H   0  0  0  0  0  0  0  0  0  0  0  0
  126.1692  115.3659  135.9448 H   0  0  0  0  0  0  0  0  0  0  0  0
  127.6510  118.0249  136.2412 H   0  0  0  0  0  0  0  0  0  0  0  0
  126.3003  117.4328  137.2745 H   0  0  0  0  0  0  0  0  0  0  0  0
  129.9458  115.2205  137.2903 H   0  0  0  0  0  0  0  0  0  0  0  0
  128.4284  114.3504  136.8752 H   0  0  0  0  0  0  0  0  0  0  0  0
  129.6609  116.6600  135.2894 H   0  0  0  0  0  0  0  0  0  0  0  0
  129.7293  114.9243  134.8400 H   0  0  0  0  0  0  0  0  0  0  0  0
  132.0994  117.2465  129.5611 H   0  0  0  0  0  0  0  0  0  0  0  0
  133.0791  116.3371  130.7612 H   0  0  0  0  0  0  0  0  0  0  0  0
  131.4594  115.1599  128.4358 H   0  0  0  0  0  0  0  0  0  0  0  0
  133.2575  115.2328  128.5857 H   0  0  0  0  0  0  0  0  0  0  0  0
  130.2065  113.5812  130.2392 H   0  0  0  0  0  0  0  0  0  0  0  0
  131.2878  112.7564  131.4292 H   0  0  0  0  0  0  0  0  0  0  0  0
  130.1260  114.7893  132.3705 H   0  0  0  0  0  0  0  0  0  0  0  0
  131.9182  114.8961  132.4202 H   0  0  0  0  0  0  0  0  0  0  0  0
  132.2923  111.6126  129.2892 H   0  0  0  0  0  0  0  0  0  0  0  0
  132.9678  112.3231  128.0802 H   0  0  0  0  0  0  0  0  0  0  0  0
  133.7421  112.6394  131.1913 H   0  0  0  0  0  0  0  0  0  0  0  0
  134.6704  113.5288  130.3147 H   0  0  0  0  0  0  0  0  0  0  0  0
  132.2951  118.4318  131.3367 H   0  0  0  0  0  0  0  0  0  0  0  0
  1  2  2  0
  2  3  2  0
  2  4  1  0
  4  5  1  0
  5  6  1  0
  2  7  1  0
  7  8  1  0
  8  9  2  0
  9 10  1  0
 10 11  2  0
 11 12  1  0
 12 13  2  0
 13 14  1  0
 14 15  2  0
 15 16  1  0
 16 17  2  0
 17 18  1  0
 18 19  1  0
 19 20  1  0
 20 21  1  0
 21 22  1  0
 21 23  1  0
 21 24  1  0
 24 25  1  0
 11 26  1  0
 26 27  1  0
 27 28  1  0
 28 29  1  0
 29 30  1  0
 30 31  1  0
 31 32  1  0
 30 33  1  0
 33 34  1  0
 26 35  2  0
 35  8  1  0
 17 12  1  0
 25 18  1  0
 32 27  1  0
 34 30  1  0
  4 36  1  0
  4 37  1  0
  5 38  1  0
  5 39  1  0
  6 40  1  0
  7 41  1  0
  9 42  1  0
 10 43  1  0
 14 44  1  0
 15 45  1  0
 16 46  1  0
 19 47  1  0
 19 48  1  0
 20 49  1  0
 20 50  1  0
 24 51  1  0
 24 52  1  0
 25 53  1  0
 25 54  1  0
 28 55  1  0
 28 56  1  0
 29 57  1  0
 29 58  1  0
 31 59  1  0
 31 60  1  0
 32 61  1  0
 32 62  1  0
 33 63  1  0
 33 64  1  0
 34 65  1  0
 34 66  1  0
 35 67  1  0
M  END
$$$$

     RDKit          3D

 67 71  0  0  0  0  0  0  0  0999 V2000
  131.0780  120.4920  135.9460 O   0  0  0  0  0  0  0  0  0  0  0  0
  131.0310  121.0840  134.6250 S   0  0  0  0  0  6  0  0  0  0  0  0
  131.7850  122.2800  134.3180 O   0  0  0  0  0  0  0  0  0  0  0  0
  129.3120  121.3790  134.2340 C   0  0  0  0  0  0  0  0  0  0  0  0
  128.4360  120.8480  135.3530 C   0  0  0  0  0  0  0  0  0  0  0  0
  128.4200  121.7540  136.4550 O   0  0  0  0  0  0  0  0  0  0  0  0
  131.4480  119.8520  133.5560 N   0  0  0  0  0  0  0  0  0  0  0  0
  130.5590  118.7550  133.3600 C   0  0  0  0  0  0  0  0  0  0  0  0
  130.3960  118.2520  132.0750 C   0  0  0  0  0  0  0  0  0  0  0  0
  129.5590  117.1570  131.8680 C   0  0  0  0  0  0  0  0  0  0  0  0
  128.8770  116.5380  132.9370 C   0  0  0  0  0  0  0  0  0  0  0  0
  128.0470  115.3500  132.6360 C   0  0  0  0  0  0  0  0  0  0  0  0
  126.8200  115.4160  133.2420 N   0  0  0  0  0  0  0  0  0  0  0  0
  126.0080  114.3500  133.1350 C   0  0  0  0  0  0  0  0  0  0  0  0
  126.3430  113.2070  132.4440 C   0  0  0  0  0  0  0  0  0  0  0  0
  127.5780  113.1660  131.8010 C   0  0  0  0  0  0  0  0  0  0  0  0
  128.4750  114.2490  131.8510 C   0  0  0  0  0  0  0  0  0  0  0  0
  129.6610  114.1810  131.1240 N   0  0  0  0  0  0  0  0  0  0  0  0
  130.9340  113.9750  131.8170 C   0  0  0  0  0  0  0  0  0  0  0  0
  132.0650  114.5620  130.9930 C   0  0  0  0  0  0  0  0  0  0  0  0
  132.1030  113.9110  129.6260 C   0  0  0  0  0  0  0  0  0  0  0  0
  132.6330  114.8000  128.7400 F   0  0  0  0  0  0  0  0  0  0  0  0
  132.9670  112.8600  129.6500 F   0  0  0  0  0  0  0  0  0  0  0  0
  130.7690  113.4220  129.0990 C   0  0  0  0  0  0  0  0  0  0  0  0
  129.6510  114.2800  129.6650 C   0  0  0  0  0  0  0  0  0  0  0  0
  129.0060  117.0790  134.2480 C   0  0  0  0  0  0  0  0  0  0  0  0
  128.2880  116.5280  135.3320 N   0  0  0  0  0  0  0  0  0  0  0  0
  129.0590  115.8550  136.3950 C   0  0  0  0  0  0  0  0  0  0  0  0
  128.1060  115.0440  137.2840 C   0  0  0  0  0  0  0  0  0  0  0  0
  126.9990  115.9250  137.8290 C   0  0  0  0  0  0  0  0  0  0  0  0
  126.2800  116.7080  136.7470 C   0  0  0  0  0  0  0  0  0  0  0  0
  127.2790  117.4720  135.8680 C   0  0  0  0  0  0  0  0  0  0  0  0
  126.1940  115.4210  139.0060 C   0  0  0  0  0  0  0  0  0  0  0  0
  127.1680  116.5510  139.1970 C   0  0  0  0  0  0  0  0  0  0  0  0
  129.8580  118.1880  134.4260 C   0  0  0  0  0  0  0  0  0  0  0  0
  129.1433  122.4599  134.1188 H   0  0  0  0  0  0  0  0  0  0  0  0
  129.0576  120.8640  133.2959 H   0  0  0  0  0  0  0  0  0  0  0  0
  127.4102  120.7180  134.9777 H   0  0  0  0  0  0  0  0  0  0  0  0
  128.8431  119.8845  135.6936 H   0  0  0  0  0  0  0  0  0  0  0  0
  129.3300  122.0940  136.5760 H   0  0  0  0  0  0  0  0  0  0  0  0
  132.4470  119.6460  133.5680 H   0  0  0  0  0  0  0  0  0  0  0  0
  130.9235  118.7145  131.2277 H   0  0  0  0  0  0  0  0  0  0  0  0
  129.4271  116.7665  130.8482 H   0  0  0  0  0  0  0  0  0  0  0  0
  125.0242  114.3931  133.6252 H   0  0  0  0  0  0  0  0  0  0  0  0
  125.6545  112.3502  132.4010 H   0  0  0  0  0  0  0  0  0  0  0  0
  127.8595  112.2631  131.2393 H   0  0  0  0  0  0  0  0  0  0  0  0
  130.9007  114.4710  132.7983 H   0  0  0  0  0  0  0  0  0  0  0  0
  131.1042  112.8969  131.9540 H   0  0  0  0  0  0  0  0  0  0  0  0
  131.9070  115.6443  130.8766 H   0  0  0  0  0  0  0  0  0  0  0  0
  133.0196  114.3771  131.5073 H   0  0  0  0  0  0  0  0  0  0  0  0
  130.7622  113.4898  128.0011 H   0  0  0  0  0  0  0  0  0  0  0  0
  130.6170  112.3764  129.4048 H   0  0  0  0  0  0  0  0  0  0  0  0
  129.8038  115.3276  129.3662 H   0  0  0  0  0  0  0  0  0  0  0  0
  128.6832  113.9292  129.2772 H   0  0  0  0  0  0  0  0  0  0  0  0
  129.7990  115.1803  135.9399 H   0  0  0  0  0  0  0  0  0  0  0  0
  129.5768  116.6094  137.0056 H   0  0  0  0  0  0  0  0  0  0  0  0
  127.6614  114.2321  136.6897 H   0  0  0  0  0  0  0  0  0  0  0  0
  128.6768  114.6312  138.1288 H   0  0  0  0  0  0  0  0  0  0  0  0
  125.7071  116.0106  136.1182 H   0  0  0  0  0  0  0  0  0  0  0  0
  125.6074  117.4341  137.2269 H   0  0  0  0  0  0  0  0  0  0  0  0
  126.7435  117.9489  135.0339 H   0  0  0  0  0  0  0  0  0  0  0  0
  127.7818  118.2434  136.4698 H   0  0  0  0  0  0  0  0  0  0  0  0
  125.1122  115.6141  139.0546 H   0  0  0  0  0  0  0  0  0  0  0  0
  126.0411  114.4396  139.4787 H   0  0  0  0  0  0  0  0  0  0  0  0
  126.7979  117.5697  139.3847 H   0  0  0  0  0  0  0  0  0  0  0  0
  128.0209  116.7368  139.8664 H   0  0  0  0  0  0  0  0  0  0  0  0
  129.9736  118.6182  135.4318 H   0  0  0  0  0  0  0  0  0  0  0  0
  1  2  2  0
  2  3  2  0
  2  4  1  0
  4  5  1  0
  5  6  1  0
  2  7  1  0
  7  8  1  0
  8  9  2  0
  9 10  1  0
 10 11  2  0
 11 12  1  0
 12 13  2  0
 13 14  1  0
 14 15  2  0
 15 16  1  0
 16 17  2  0
 17 18  1  0
 18 19  1  0
 19 20  1  0
 20 21  1  0
 21 22  1  0
 21 23  1  0
 21 24  1  0
 24 25  1  0
 11 26  1  0
 26 27  1  0
 27 28  1  0
 28 29  1  0
 29 30  1  0
 30 31  1  0
 31 32  1  0
 30 33  1  0
 33 34  1  0
 26 35  2  0
 35  8  1  0
 17 12  1  0
 25 18  1  0
 32 27  1  0
 34 30  1  0
  4 36  1  0
  4 37  1  0
  5 38  1  0
  5 39  1  0
  6 40  1  0
  7 41  1  0
  9 42  1  0
 10 43  1  0
 14 44  1  0
 15 45  1  0
 16 46  1  0
 19 47  1  0
 19 48  1  0
 20 49  1  0
 20 50  1  0
 24 51  1  0
 24 52  1  0
 25 53  1  0
 25 54  1  0
 28 55  1  0
 28 56  1  0
 29 57  1  0
 29 58  1  0
 31 59  1  0
 31 60  1  0
 32 61  1  0
 32 62  1  0
 33 63  1  0
 33 64  1  0
 34 65  1  0
 34 66  1  0
 35 67  1  0
M  END
$$$$

     RDKit          3D

 67 71  0  0  0  0  0  0  0  0999 V2000
  132.0380  122.2960  134.6520 O   0  0  0  0  0  0  0  0  0  0  0  0
  130.8880  121.4290  134.5000 S   0  0  0  0  0  6  0  0  0  0  0  0
  129.5430  121.9560  134.5720 O   0  0  0  0  0  0  0  0  0  0  0  0
  131.0500  120.1140  135.7000 C   0  0  0  0  0  0  0  0  0  0  0  0
  129.9750  120.2570  136.7610 C   0  0  0  0  0  0  0  0  0  0  0  0
  130.3290  119.5350  137.9390 O   0  0  0  0  0  0  0  0  0  0  0  0
  131.1110  120.6240  133.0370 N   0  0  0  0  0  0  0  0  0  0  0  0
  130.4710  119.3690  132.8160 C   0  0  0  0  0  0  0  0  0  0  0  0
  129.2520  119.1270  133.4350 C   0  0  0  0  0  0  0  0  0  0  0  0
  128.5930  117.9200  133.2030 C   0  0  0  0  0  0  0  0  0  0  0  0
  129.1320  116.9390  132.3440 C   0  0  0  0  0  0  0  0  0  0  0  0
  128.3430  115.7080  132.1140 C   0  0  0  0  0  0  0  0  0  0  0  0
  128.3760  115.3170  130.8020 N   0  0  0  0  0  0  0  0  0  0  0  0
  127.6140  114.2700  130.4380 C   0  0  0  0  0  0  0  0  0  0  0  0
  126.8140  113.5720  131.3160 C   0  0  0  0  0  0  0  0  0  0  0  0
  126.8190  113.9560  132.6550 C   0  0  0  0  0  0  0  0  0  0  0  0
  127.6040  115.0300  133.1160 C   0  0  0  0  0  0  0  0  0  0  0  0
  127.6260  115.3170  134.4790 N   0  0  0  0  0  0  0  0  0  0  0  0
  126.3770  115.5980  135.1880 C   0  0  0  0  0  0  0  0  0  0  0  0
  126.6600  116.4750  136.3930 C   0  0  0  0  0  0  0  0  0  0  0  0
  127.6420  115.7860  137.3180 C   0  0  0  0  0  0  0  0  0  0  0  0
  128.3400  116.7400  137.9950 F   0  0  0  0  0  0  0  0  0  0  0  0
  126.9570  115.0910  138.2670 F   0  0  0  0  0  0  0  0  0  0  0  0
  128.6190  114.8420  136.6450 C   0  0  0  0  0  0  0  0  0  0  0  0
  128.8840  115.3090  135.2250 C   0  0  0  0  0  0  0  0  0  0  0  0
  130.4030  117.1670  131.7440 C   0  0  0  0  0  0  0  0  0  0  0  0
  131.0050  116.1810  130.9310 N   0  0  0  0  0  0  0  0  0  0  0  0
  132.2130  116.5600  130.1730 C   0  0  0  0  0  0  0  0  0  0  0  0
  132.5110  115.4900  129.1140 C   0  0  0  0  0  0  0  0  0  0  0  0
  132.6250  114.1190  129.7520 C   0  0  0  0  0  0  0  0  0  0  0  0
  131.4340  113.7740  130.6270 C   0  0  0  0  0  0  0  0  0  0  0  0
  131.1600  114.8910  131.6440 C   0  0  0  0  0  0  0  0  0  0  0  0
  133.2780  113.0100  128.9590 C   0  0  0  0  0  0  0  0  0  0  0  0
  133.9940  113.6040  130.1410 C   0  0  0  0  0  0  0  0  0  0  0  0
  131.0470  118.3950  131.9980 C   0  0  0  0  0  0  0  0  0  0  0  0
  130.9395  119.1427  135.1957 H   0  0  0  0  0  0  0  0  0  0  0  0
  132.0409  120.1725  136.1741 H   0  0  0  0  0  0  0  0  0  0  0  0
  129.8552  121.3212  137.0123 H   0  0  0  0  0  0  0  0  0  0  0  0
  129.0327  119.8491  136.3664 H   0  0  0  0  0  0  0  0  0  0  0  0
  130.9480  120.0910  138.4570 H   0  0  0  0  0  0  0  0  0  0  0  0
  132.0560  120.7360  132.6700 H   0  0  0  0  0  0  0  0  0  0  0  0
  128.8097  119.8809  134.1028 H   0  0  0  0  0  0  0  0  0  0  0  0
  127.6311  117.7284  133.7011 H   0  0  0  0  0  0  0  0  0  0  0  0
  127.6305  113.9546  129.3843 H   0  0  0  0  0  0  0  0  0  0  0  0
  126.1893  112.7355  130.9696 H   0  0  0  0  0  0  0  0  0  0  0  0
  126.1925  113.4050  133.3718 H   0  0  0  0  0  0  0  0  0  0  0  0
  125.6819  116.1180  134.5124 H   0  0  0  0  0  0  0  0  0  0  0  0
  125.9273  114.6518  135.5233 H   0  0  0  0  0  0  0  0  0  0  0  0
  127.0872  117.4308  136.0553 H   0  0  0  0  0  0  0  0  0  0  0  0
  125.7204  116.6564  136.9354 H   0  0  0  0  0  0  0  0  0  0  0  0
  129.5636  114.8302  137.2086 H   0  0  0  0  0  0  0  0  0  0  0  0
  128.1907  113.8291  136.6220 H   0  0  0  0  0  0  0  0  0  0  0  0
  129.3067  116.3243  135.2444 H   0  0  0  0  0  0  0  0  0  0  0  0
  129.5977  114.6276  134.7389 H   0  0  0  0  0  0  0  0  0  0  0  0
  132.0465  117.5284  129.6786 H   0  0  0  0  0  0  0  0  0  0  0  0
  133.0668  116.6411  130.8618 H   0  0  0  0  0  0  0  0  0  0  0  0
  131.6965  115.4773  128.3748 H   0  0  0  0  0  0  0  0  0  0  0  0
  133.4666  115.7328  128.6262 H   0  0  0  0  0  0  0  0  0  0  0  0
  130.5465  113.6402  129.9910 H   0  0  0  0  0  0  0  0  0  0  0  0
  131.6571  112.8466  131.1749 H   0  0  0  0  0  0  0  0  0  0  0  0
  130.2367  114.6646  132.1974 H   0  0  0  0  0  0  0  0  0  0  0  0
  132.0020  114.9602  132.3484 H   0  0  0  0  0  0  0  0  0  0  0  0
  132.8797  111.9862  129.0157 H   0  0  0  0  0  0  0  0  0  0  0  0
  133.5257  112.8560  127.8984 H   0  0  0  0  0  0  0  0  0  0  0  0
  134.1184  113.0145  131.0614 H   0  0  0  0  0  0  0  0  0  0  0  0
  134.9804  114.0636  130.3014 H   0  0  0  0  0  0  0  0  0  0  0  0
  132.0279  118.5908  131.5403 H   0  0  0  0  0  0  0  0  0  0  0  0
  1  2  2  0
  2  3  2  0
  2  4  1  0
  4  5  1  0
  5  6  1  0
  2  7  1  0
  7  8  1  0
  8  9  2  0
  9 10  1  0
 10 11  2  0
 11 12  1  0
 12 13  2  0
 13 14  1  0
 14 15  2  0
 15 16  1  0
 16 17  2  0
 17 18  1  0
 18 19  1  0
 19 20  1  0
 20 21  1  0
 21 22  1  0
 21 23  1  0
 21 24  1  0
 24 25  1  0
 11 26  1  0
 26 27  1  0
 27 28  1  0
 28 29  1  0
 29 30  1  0
 30 31  1  0
 31 32  1  0
 30 33  1  0
 33 34  1  0
 26 35  2  0
 35  8  1  0
 17 12  1  0
 25 18  1  0
 32 27  1  0
 34 30  1  0
  4 36  1  0
  4 37  1  0
  5 38  1  0
  5 39  1  0
  6 40  1  0
  7 41  1  0
  9 42  1  0
 10 43  1  0
 14 44  1  0
 15 45  1  0
 16 46  1  0
 19 47  1  0
 19 48  1  0
 20 49  1  0
 20 50  1  0
 24 51  1  0
 24 52  1  0
 25 53  1  0
 25 54  1  0
 28 55  1  0
 28 56  1  0
 29 57  1  0
 29 58  1  0
 31 59  1  0
 31 60  1  0
 32 61  1  0
 32 62  1  0
 33 63  1  0
 33 64  1  0
 34 65  1  0
 34 66  1  0
 35 67  1  0
M  END
$$$$

     RDKit          3D

 67 71  0  0  0  0  0  0  0  0999 V2000
  131.2670  120.3610  135.7890 O   0  0  0  0  0  0  0  0  0  0  0  0
  131.0670  121.0450  134.5270 S   0  0  0  0  0  6  0  0  0  0  0  0
  131.7720  122.2710  134.2260 O   0  0  0  0  0  0  0  0  0  0  0  0
  129.3120  121.3380  134.3530 C   0  0  0  0  0  0  0  0  0  0  0  0
  128.5770  120.7580  135.5460 C   0  0  0  0  0  0  0  0  0  0  0  0
  127.7770  121.7540  136.1800 O   0  0  0  0  0  0  0  0  0  0  0  0
  131.3710  119.8990  133.3320 N   0  0  0  0  0  0  0  0  0  0  0  0
  130.4920  118.7870  133.1770 C   0  0  0  0  0  0  0  0  0  0  0  0
  130.3290  118.2400  131.9120 C   0  0  0  0  0  0  0  0  0  0  0  0
  129.5000  117.1310  131.7450 C   0  0  0  0  0  0  0  0  0  0  0  0
  128.8280  116.5420  132.8370 C   0  0  0  0  0  0  0  0  0  0  0  0
  128.0090  115.3370  132.5810 C   0  0  0  0  0  0  0  0  0  0  0  0
  126.7760  115.4210  133.1740 N   0  0  0  0  0  0  0  0  0  0  0  0
  125.9710  114.3460  133.1060 C   0  0  0  0  0  0  0  0  0  0  0  0
  126.3190  113.1770  132.4660 C   0  0  0  0  0  0  0  0  0  0  0  0
  127.5590  113.1180  131.8340 C   0  0  0  0  0  0  0  0  0  0  0  0
  128.4490  114.2080  131.8460 C   0  0  0  0  0  0  0  0  0  0  0  0
  129.6410  114.1170  131.1300 N   0  0  0  0  0  0  0  0  0  0  0  0
  129.6260  114.2120  129.6690 C   0  0  0  0  0  0  0  0  0  0  0  0
  130.8210  113.4720  129.0970 C   0  0  0  0  0  0  0  0  0  0  0  0
  132.1060  114.0580  129.6460 C   0  0  0  0  0  0  0  0  0  0  0  0
  133.0550  113.0810  129.6580 F   0  0  0  0  0  0  0  0  0  0  0  0
  132.5700  115.0090  128.7910 F   0  0  0  0  0  0  0  0  0  0  0  0
  132.0050  114.6670  131.0310 C   0  0  0  0  0  0  0  0  0  0  0  0
  130.9200  113.9590  131.8220 C   0  0  0  0  0  0  0  0  0  0  0  0
  128.9580  117.1300  134.1280 C   0  0  0  0  0  0  0  0  0  0  0  0
  128.2480  116.6090  135.2330 N   0  0  0  0  0  0  0  0  0  0  0  0
  128.9850  115.7480  136.1780 C   0  0  0  0  0  0  0  0  0  0  0  0
  127.9890  115.0220  137.0930 C   0  0  0  0  0  0  0  0  0  0  0  0
  127.0780  116.0140  137.7900 C   0  0  0  0  0  0  0  0  0  0  0  0
  126.4080  116.9770  136.8290 C   0  0  0  0  0  0  0  0  0  0  0  0
  127.4430  117.6490  135.9170 C   0  0  0  0  0  0  0  0  0  0  0  0
  126.2980  115.5450  138.9980 C   0  0  0  0  0  0  0  0  0  0  0  0
  127.4470  116.4990  139.1760 C   0  0  0  0  0  0  0  0  0  0  0  0
  129.8000  118.2520  134.2650 C   0  0  0  0  0  0  0  0  0  0  0  0
  129.1254  122.4207  134.2995 H   0  0  0  0  0  0  0  0  0  0  0  0
  128.9513  120.8555  133.4327 H   0  0  0  0  0  0  0  0  0  0  0  0
  127.9286  119.9370  135.2061 H   0  0  0  0  0  0  0  0  0  0  0  0
  129.3171  120.3862  136.2699 H   0  0  0  0  0  0  0  0  0  0  0  0
  126.8900  121.7360  135.7620 H   0  0  0  0  0  0  0  0  0  0  0  0
  132.3680  119.7260  133.2020 H   0  0  0  0  0  0  0  0  0  0  0  0
  130.8497  118.6778  131.0476 H   0  0  0  0  0  0  0  0  0  0  0  0
  129.3670  116.7058  130.7392 H   0  0  0  0  0  0  0  0  0  0  0  0
  124.9832  114.4032  133.5865 H   0  0  0  0  0  0  0  0  0  0  0  0
  125.6368  112.3142  132.4543 H   0  0  0  0  0  0  0  0  0  0  0  0
  127.8502  112.1948  131.3116 H   0  0  0  0  0  0  0  0  0  0  0  0
  128.6988  113.7635  129.2828 H   0  0  0  0  0  0  0  0  0  0  0  0
  129.6758  115.2699  129.3718 H   0  0  0  0  0  0  0  0  0  0  0  0
  130.7579  112.4093  129.3740 H   0  0  0  0  0  0  0  0  0  0  0  0
  130.8175  113.5733  128.0017 H   0  0  0  0  0  0  0  0  0  0  0  0
  132.9682  114.5559  131.5506 H   0  0  0  0  0  0  0  0  0  0  0  0
  131.7545  115.7345  130.9428 H   0  0  0  0  0  0  0  0  0  0  0  0
  131.1637  112.8896  131.9055 H   0  0  0  0  0  0  0  0  0  0  0  0
  130.8520  114.3954  132.8295 H   0  0  0  0  0  0  0  0  0  0  0  0
  129.5739  115.0077  135.6166 H   0  0  0  0  0  0  0  0  0  0  0  0
  129.6593  116.3668  136.7882 H   0  0  0  0  0  0  0  0  0  0  0  0
  127.3788  114.3346  136.4887 H   0  0  0  0  0  0  0  0  0  0  0  0
  128.5522  114.4638  137.8554 H   0  0  0  0  0  0  0  0  0  0  0  0
  125.6869  116.4240  136.2092 H   0  0  0  0  0  0  0  0  0  0  0  0
  125.8951  117.7559  137.4123 H   0  0  0  0  0  0  0  0  0  0  0  0
  126.9256  118.2647  135.1666 H   0  0  0  0  0  0  0  0  0  0  0  0
  128.1050  118.2867  136.5212 H   0  0  0  0  0  0  0  0  0  0  0  0
  125.2662  115.8926  139.1544 H   0  0  0  0  0  0  0  0  0  0  0  0
  126.0319  114.5634  139.4171 H   0  0  0  0  0  0  0  0  0  0  0  0
  127.2547  117.5436  139.4620 H   0  0  0  0  0  0  0  0  0  0  0  0
  128.3674  116.5029  139.7783 H   0  0  0  0  0  0  0  0  0  0  0  0
  129.9148  118.7181  135.2547 H   0  0  0  0  0  0  0  0  0  0  0  0
  1  2  2  0
  2  3  2  0
  2  4  1  0
  4  5  1  0
  5  6  1  0
  2  7  1  0
  7  8  1  0
  8  9  2  0
  9 10  1  0
 10 11  2  0
 11 12  1  0
 12 13  2  0
 13 14  1  0
 14 15  2  0
 15 16  1  0
 16 17  2  0
 17 18  1  0
 18 19  1  0
 19 20  1  0
 20 21  1  0
 21 22  1  0
 21 23  1  0
 21 24  1  0
 24 25  1  0
 11 26  1  0
 26 27  1  0
 27 28  1  0
 28 29  1  0
 29 30  1  0
 30 31  1  0
 31 32  1  0
 30 33  1  0
 33 34  1  0
 26 35  2  0
 35  8  1  0
 17 12  1  0
 25 18  1  0
 32 27  1  0
 34 30  1  0
  4 36  1  0
  4 37  1  0
  5 38  1  0
  5 39  1  0
  6 40  1  0
  7 41  1  0
  9 42  1  0
 10 43  1  0
 14 44  1  0
 15 45  1  0
 16 46  1  0
 19 47  1  0
 19 48  1  0
 20 49  1  0
 20 50  1  0
 24 51  1  0
 24 52  1  0
 25 53  1  0
 25 54  1  0
 28 55  1  0
 28 56  1  0
 29 57  1  0
 29 58  1  0
 31 59  1  0
 31 60  1  0
 32 61  1  0
 32 62  1  0
 33 63  1  0
 33 64  1  0
 34 65  1  0
 34 66  1  0
 35 67  1  0
M  END
$$$$

     RDKit          3D

 67 71  0  0  0  0  0  0  0  0999 V2000
  129.6670  121.3870  133.7360 O   0  0  0  0  0  0  0  0  0  0  0  0
  131.0500  121.1790  134.1170 S   0  0  0  0  0  6  0  0  0  0  0  0
  131.4330  121.0990  135.5090 O   0  0  0  0  0  0  0  0  0  0  0  0
  132.0180  122.4590  133.3310 C   0  0  0  0  0  0  0  0  0  0  0  0
  132.9170  121.8430  132.2760 C   0  0  0  0  0  0  0  0  0  0  0  0
  132.2870  121.8720  130.9960 O   0  0  0  0  0  0  0  0  0  0  0  0
  131.5440  119.7890  133.3050 N   0  0  0  0  0  0  0  0  0  0  0  0
  130.6420  118.6940  133.1620 C   0  0  0  0  0  0  0  0  0  0  0  0
  130.4850  118.1220  131.9060 C   0  0  0  0  0  0  0  0  0  0  0  0
  129.6340  117.0290  131.7520 C   0  0  0  0  0  0  0  0  0  0  0  0
  128.9320  116.4800  132.8470 C   0  0  0  0  0  0  0  0  0  0  0  0
  128.0890  115.2890  132.6050 C   0  0  0  0  0  0  0  0  0  0  0  0
  126.8810  115.3780  133.2470 N   0  0  0  0  0  0  0  0  0  0  0  0
  126.0610  114.3130  133.1940 C   0  0  0  0  0  0  0  0  0  0  0  0
  126.3700  113.1500  132.5250 C   0  0  0  0  0  0  0  0  0  0  0  0
  127.5840  113.0860  131.8450 C   0  0  0  0  0  0  0  0  0  0  0  0
  128.4870  114.1650  131.8380 C   0  0  0  0  0  0  0  0  0  0  0  0
  129.6500  114.0710  131.0760 N   0  0  0  0  0  0  0  0  0  0  0  0
  130.9390  113.8530  131.7340 C   0  0  0  0  0  0  0  0  0  0  0  0
  132.0540  114.4140  130.8700 C   0  0  0  0  0  0  0  0  0  0  0  0
  132.0420  113.7470  129.5090 C   0  0  0  0  0  0  0  0  0  0  0  0
  132.5570  114.6180  128.5970 F   0  0  0  0  0  0  0  0  0  0  0  0
  132.8900  112.6840  129.5200 F   0  0  0  0  0  0  0  0  0  0  0  0
  130.6840  113.2730  129.0280 C   0  0  0  0  0  0  0  0  0  0  0  0
  129.5970  114.1540  129.6170 C   0  0  0  0  0  0  0  0  0  0  0  0
  129.0560  117.0940  134.1260 C   0  0  0  0  0  0  0  0  0  0  0  0
  128.3180  116.6150  135.2320 N   0  0  0  0  0  0  0  0  0  0  0  0
  129.0040  115.7090  136.1740 C   0  0  0  0  0  0  0  0  0  0  0  0
  127.9680  115.0420  137.0890 C   0  0  0  0  0  0  0  0  0  0  0  0
  127.1200  116.0860  137.7900 C   0  0  0  0  0  0  0  0  0  0  0  0
  126.5080  117.0900  136.8320 C   0  0  0  0  0  0  0  0  0  0  0  0
  127.5790  117.7000  135.9190 C   0  0  0  0  0  0  0  0  0  0  0  0
  126.3160  115.6630  138.9990 C   0  0  0  0  0  0  0  0  0  0  0  0
  127.5210  116.5450  139.1760 C   0  0  0  0  0  0  0  0  0  0  0  0
  129.9220  118.2000  134.2510 C   0  0  0  0  0  0  0  0  0  0  0  0
  131.3444  123.1883  132.8573 H   0  0  0  0  0  0  0  0  0  0  0  0
  132.6363  122.9651  134.0870 H   0  0  0  0  0  0  0  0  0  0  0  0
  133.8583  122.4102  132.2280 H   0  0  0  0  0  0  0  0  0  0  0  0
  133.1154  120.7959  132.5485 H   0  0  0  0  0  0  0  0  0  0  0  0
  131.3240  121.7560  131.1340 H   0  0  0  0  0  0  0  0  0  0  0  0
  132.5250  119.5650  133.4750 H   0  0  0  0  0  0  0  0  0  0  0  0
  131.0279  118.5284  131.0399 H   0  0  0  0  0  0  0  0  0  0  0  0
  129.5064  116.5838  130.7542 H   0  0  0  0  0  0  0  0  0  0  0  0
  125.0927  114.3745  133.7124 H   0  0  0  0  0  0  0  0  0  0  0  0
  125.6776  112.2953  132.5274 H   0  0  0  0  0  0  0  0  0  0  0  0
  127.8437  112.1672  131.2988 H   0  0  0  0  0  0  0  0  0  0  0  0
  130.9420  114.3601  132.7101 H   0  0  0  0  0  0  0  0  0  0  0  0
  131.0971  112.7741  131.8787 H   0  0  0  0  0  0  0  0  0  0  0  0
  131.9085  115.4973  130.7459 H   0  0  0  0  0  0  0  0  0  0  0  0
  133.0206  114.2204  131.3580 H   0  0  0  0  0  0  0  0  0  0  0  0
  130.6450  113.3287  127.9301 H   0  0  0  0  0  0  0  0  0  0  0  0
  130.5254  112.2335  129.3508 H   0  0  0  0  0  0  0  0  0  0  0  0
  129.7563  115.1957  129.3016 H   0  0  0  0  0  0  0  0  0  0  0  0
  128.6127  113.8140  129.2626 H   0  0  0  0  0  0  0  0  0  0  0  0
  129.5466  114.9360  135.6099 H   0  0  0  0  0  0  0  0  0  0  0  0
  129.7153  116.2849  136.7843 H   0  0  0  0  0  0  0  0  0  0  0  0
  127.3163  114.3942  136.4844 H   0  0  0  0  0  0  0  0  0  0  0  0
  128.4976  114.4485  137.8488 H   0  0  0  0  0  0  0  0  0  0  0  0
  125.7534  116.5829  136.2128 H   0  0  0  0  0  0  0  0  0  0  0  0
  126.0451  117.8975  137.4182 H   0  0  0  0  0  0  0  0  0  0  0  0
  127.0979  118.3469  135.1707 H   0  0  0  0  0  0  0  0  0  0  0  0
  128.2795  118.2959  136.5225 H   0  0  0  0  0  0  0  0  0  0  0  0
  125.3075  116.0723  139.1586 H   0  0  0  0  0  0  0  0  0  0  0  0
  125.9918  114.6985  139.4170 H   0  0  0  0  0  0  0  0  0  0  0  0
  127.3932  117.5988  139.4644 H   0  0  0  0  0  0  0  0  0  0  0  0
  128.4414  116.4918  139.7761 H   0  0  0  0  0  0  0  0  0  0  0  0
  130.0329  118.6858  135.2317 H   0  0  0  0  0  0  0  0  0  0  0  0
  1  2  2  0
  2  3  2  0
  2  4  1  0
  4  5  1  0
  5  6  1  0
  2  7  1  0
  7  8  1  0
  8  9  2  0
  9 10  1  0
 10 11  2  0
 11 12  1  0
 12 13  2  0
 13 14  1  0
 14 15  2  0
 15 16  1  0
 16 17  2  0
 17 18  1  0
 18 19  1  0
 19 20  1  0
 20 21  1  0
 21 22  1  0
 21 23  1  0
 21 24  1  0
 24 25  1  0
 11 26  1  0
 26 27  1  0
 27 28  1  0
 28 29  1  0
 29 30  1  0
 30 31  1  0
 31 32  1  0
 30 33  1  0
 33 34  1  0
 26 35  2  0
 35  8  1  0
 17 12  1  0
 25 18  1  0
 32 27  1  0
 34 30  1  0
  4 36  1  0
  4 37  1  0
  5 38  1  0
  5 39  1  0
  6 40  1  0
  7 41  1  0
  9 42  1  0
 10 43  1  0
 14 44  1  0
 15 45  1  0
 16 46  1  0
 19 47  1  0
 19 48  1  0
 20 49  1  0
 20 50  1  0
 24 51  1  0
 24 52  1  0
 25 53  1  0
 25 54  1  0
 28 55  1  0
 28 56  1  0
 29 57  1  0
 29 58  1  0
 31 59  1  0
 31 60  1  0
 32 61  1  0
 32 62  1  0
 33 63  1  0
 33 64  1  0
 34 65  1  0
 34 66  1  0
 35 67  1  0
M  END
$$$$

