
     RDKit          3D

 72 76  0  0  0  0  0  0  0  0999 V2000
  128.6170  115.8100  138.2560 C   0  0  0  0  0  0  0  0  0  0  0  0
  127.9590  116.9510  137.4740 C   0  0  0  0  0  0  0  0  0  0  0  0
  127.9510  116.6390  135.9780 C   0  0  0  0  0  0  0  0  0  0  0  0
  126.5000  117.0950  137.9460 C   0  0  0  0  0  0  0  0  0  0  0  0
  128.6310  118.2230  137.8090 N   0  0  0  0  0  0  0  0  0  0  0  0
  130.1550  118.7260  137.3640 S   0  0  0  0  0  6  0  0  0  0  0  0
  130.9260  117.5180  137.1580 O   0  0  0  0  0  0  0  0  0  0  0  0
  130.6100  119.7560  138.2690 O   0  0  0  0  0  0  0  0  0  0  0  0
  129.9200  119.4430  135.7610 C   0  0  0  0  0  0  0  0  0  0  0  0
  129.0270  120.5050  135.5840 C   0  0  0  0  0  0  0  0  0  0  0  0
  128.8680  121.0690  134.3170 C   0  0  0  0  0  0  0  0  0  0  0  0
  129.6140  120.5890  133.2390 C   0  0  0  0  0  0  0  0  0  0  0  0
  130.5350  119.5540  133.4380 C   0  0  0  0  0  0  0  0  0  0  0  0
  131.3150  119.0590  132.2860 C   0  0  0  0  0  0  0  0  0  0  0  0
  132.2380  119.7740  131.9080 O   0  0  0  0  0  0  0  0  0  0  0  0
  130.9480  117.8320  131.7540 N   0  0  0  0  0  0  0  0  0  0  0  0
  129.7180  117.0790  132.0660 C   0  0  0  0  0  0  0  0  0  0  0  0
  129.8300  115.6800  131.3940 C   0  0  0  0  0  0  0  0  0  0  0  0
  128.6230  115.3940  130.4750 C   0  0  0  0  0  0  0  0  0  0  0  0
  127.3370  115.1580  131.2690 C   0  0  0  0  0  0  0  0  0  0  0  0
  127.5410  114.0580  132.2840 C   0  0  0  0  0  0  0  0  0  0  0  0
  126.3160  113.3610  132.8310 C   0  0  0  0  0  0  0  0  0  0  0  0
  127.2270  112.6340  131.8810 C   0  0  0  0  0  0  0  0  0  0  0  0
  128.6970  114.3020  133.2270 C   0  0  0  0  0  0  0  0  0  0  0  0
  129.9870  114.5580  132.4450 C   0  0  0  0  0  0  0  0  0  0  0  0
  131.1090  115.8460  130.6000 C   0  0  0  0  0  0  0  0  0  0  0  0
  131.6950  114.9300  129.7280 C   0  0  0  0  0  0  0  0  0  0  0  0
  132.9060  115.2600  129.1140 C   0  0  0  0  0  0  0  0  0  0  0  0
  133.4920  114.3100  128.2290 N   0  0  0  0  0  0  0  0  0  0  0  0
  134.5400  113.1310  128.8140 S   0  0  0  0  0  6  0  0  0  0  0  0
  135.6110  114.0640  129.8910 C   0  0  0  0  0  0  0  0  0  0  0  0
  133.7250  112.2740  129.6490 O   0  0  0  0  0  0  0  0  0  0  0  0
  135.3290  112.5890  127.7310 O   0  0  0  0  0  0  0  0  0  0  0  0
  133.5040  116.5000  129.3610 C   0  0  0  0  0  0  0  0  0  0  0  0
  132.9130  117.4150  130.2410 C   0  0  0  0  0  0  0  0  0  0  0  0
  131.7170  117.0760  130.8540 C   0  0  0  0  0  0  0  0  0  0  0  0
  130.6830  118.9620  134.6930 C   0  0  0  0  0  0  0  0  0  0  0  0
  128.5100  115.9955  139.3349 H   0  0  0  0  0  0  0  0  0  0  0  0
  128.1287  114.8589  137.9973 H   0  0  0  0  0  0  0  0  0  0  0  0
  129.6848  115.7562  137.9973 H   0  0  0  0  0  0  0  0  0  0  0  0
  127.9230  115.5492  135.8309 H   0  0  0  0  0  0  0  0  0  0  0  0
  127.0642  117.0946  135.5132 H   0  0  0  0  0  0  0  0  0  0  0  0
  128.8599  117.0486  135.5132 H   0  0  0  0  0  0  0  0  0  0  0  0
  126.4690  117.0981  139.0456 H   0  0  0  0  0  0  0  0  0  0  0  0
  126.0827  118.0387  137.5648 H   0  0  0  0  0  0  0  0  0  0  0  0
  125.9063  116.2511  137.5648 H   0  0  0  0  0  0  0  0  0  0  0  0
  128.1740  118.8450  138.4740 H   0  0  0  0  0  0  0  0  0  0  0  0
  128.4533  120.8935  136.4384 H   0  0  0  0  0  0  0  0  0  0  0  0
  128.1542  121.8925  134.1678 H   0  0  0  0  0  0  0  0  0  0  0  0
  129.4785  121.0225  132.2371 H   0  0  0  0  0  0  0  0  0  0  0  0
  129.6168  116.9634  133.1552 H   0  0  0  0  0  0  0  0  0  0  0  0
  128.8346  117.6153  131.6893 H   0  0  0  0  0  0  0  0  0  0  0  0
  128.4742  116.2552  129.8070 H   0  0  0  0  0  0  0  0  0  0  0  0
  128.8413  114.4789  129.9049 H   0  0  0  0  0  0  0  0  0  0  0  0
  127.0573  116.0853  131.7904 H   0  0  0  0  0  0  0  0  0  0  0  0
  126.5377  114.8599  130.5745 H   0  0  0  0  0  0  0  0  0  0  0  0
  126.2786  113.0663  133.8901 H   0  0  0  0  0  0  0  0  0  0  0  0
  125.2398  113.5871  132.8549 H   0  0  0  0  0  0  0  0  0  0  0  0
  127.8556  111.8083  132.2458 H   0  0  0  0  0  0  0  0  0  0  0  0
  127.0922  112.1093  130.9237 H   0  0  0  0  0  0  0  0  0  0  0  0
  128.4739  115.1787  133.8528 H   0  0  0  0  0  0  0  0  0  0  0  0
  128.8353  113.4101  133.8558 H   0  0  0  0  0  0  0  0  0  0  0  0
  130.7775  114.8466  133.1535 H   0  0  0  0  0  0  0  0  0  0  0  0
  130.2420  113.6318  131.9092 H   0  0  0  0  0  0  0  0  0  0  0  0
  131.2118  113.9626  129.5264 H   0  0  0  0  0  0  0  0  0  0  0  0
  132.9190  113.9670  127.4580 H   0  0  0  0  0  0  0  0  0  0  0  0
  135.3588  113.8443  130.9389 H   0  0  0  0  0  0  0  0  0  0  0  0
  136.6575  113.7845  129.6994 H   0  0  0  0  0  0  0  0  0  0  0  0
  135.4776  115.1389  129.6994 H   0  0  0  0  0  0  0  0  0  0  0  0
  134.4479  116.7590  128.8590 H   0  0  0  0  0  0  0  0  0  0  0  0
  133.3896  118.3858  130.4422 H   0  0  0  0  0  0  0  0  0  0  0  0
  131.3883  118.1307  134.8394 H   0  0  0  0  0  0  0  0  0  0  0  0
  1  2  1  0
  2  3  1  0
  2  4  1  0
  2  5  1  0
  5  6  1  0
  6  7  2  0
  6  8  2  0
  6  9  1  0
  9 10  2  0
 10 11  1  0
 11 12  2  0
 12 13  1  0
 13 14  1  0
 14 15  2  0
 14 16  1  0
 16 17  1  0
 17 18  1  0
 18 19  1  0
 19 20  1  0
 20 21  1  0
 21 22  1  0
 22 23  1  0
 21 24  1  0
 24 25  1  0
 18 26  1  0
 26 27  2  0
 27 28  1  0
 28 29  1  0
 29 30  1  0
 30 31  1  0
 30 32  2  0
 30 33  2  0
 28 34  2  0
 34 35  1  0
 35 36  2  0
 13 37  2  0
 37  9  1  0
 36 16  1  0
 25 18  1  0
 36 26  1  0
 23 21  1  0
  1 38  1  0
  1 39  1  0
  1 40  1  0
  3 41  1  0
  3 42  1  0
  3 43  1  0
  4 44  1  0
  4 45  1  0
  4 46  1  0
  5 47  1  0
 10 48  1  0
 11 49  1  0
 12 50  1  0
 17 51  1  0
 17 52  1  0
 19 53  1  0
 19 54  1  0
 20 55  1  0
 20 56  1  0
 22 57  1  0
 22 58  1  0
 23 59  1  0
 23 60  1  0
 24 61  1  0
 24 62  1  0
 25 63  1  0
 25 64  1  0
 27 65  1  0
 29 66  1  0
 31 67  1  0
 31 68  1  0
 31 69  1  0
 34 70  1  0
 35 71  1  0
 37 72  1  0
M  END
$$$$

     RDKit          3D

 72 76  0  0  0  0  0  0  0  0999 V2000
  126.4910  117.3090  136.9410 C   0  0  0  0  0  0  0  0  0  0  0  0
  127.6680  116.5620  137.5760 C   0  0  0  0  0  0  0  0  0  0  0  0
  127.5970  116.6510  139.1000 C   0  0  0  0  0  0  0  0  0  0  0  0
  127.5840  115.0780  137.1740 C   0  0  0  0  0  0  0  0  0  0  0  0
  128.9320  117.0740  137.0120 N   0  0  0  0  0  0  0  0  0  0  0  0
  129.6630  118.5440  137.2980 S   0  0  0  0  0  6  0  0  0  0  0  0
  131.0620  118.2500  137.5330 O   0  0  0  0  0  0  0  0  0  0  0  0
  128.8870  119.2940  138.2570 O   0  0  0  0  0  0  0  0  0  0  0  0
  129.5880  119.3730  135.7330 C   0  0  0  0  0  0  0  0  0  0  0  0
  128.8050  120.5210  135.5770 C   0  0  0  0  0  0  0  0  0  0  0  0
  128.7710  121.1710  134.3420 C   0  0  0  0  0  0  0  0  0  0  0  0
  129.5340  120.6890  133.2780 C   0  0  0  0  0  0  0  0  0  0  0  0
  130.3450  119.5620  133.4580 C   0  0  0  0  0  0  0  0  0  0  0  0
  131.1450  119.0660  132.3200 C   0  0  0  0  0  0  0  0  0  0  0  0
  132.0530  119.7960  131.9360 O   0  0  0  0  0  0  0  0  0  0  0  0
  130.8090  117.8220  131.8060 N   0  0  0  0  0  0  0  0  0  0  0  0
  129.5820  117.0580  132.1020 C   0  0  0  0  0  0  0  0  0  0  0  0
  129.7320  115.6470  131.4670 C   0  0  0  0  0  0  0  0  0  0  0  0
  128.5540  115.3220  130.5220 C   0  0  0  0  0  0  0  0  0  0  0  0
  127.2500  115.0850  131.2860 C   0  0  0  0  0  0  0  0  0  0  0  0
  127.4430  114.0120  132.3320 C   0  0  0  0  0  0  0  0  0  0  0  0
  126.2130  113.3090  132.8620 C   0  0  0  0  0  0  0  0  0  0  0  0
  127.1590  112.5750  131.9540 C   0  0  0  0  0  0  0  0  0  0  0  0
  128.5680  114.2940  133.3000 C   0  0  0  0  0  0  0  0  0  0  0  0
  129.8760  114.5510  132.5470 C   0  0  0  0  0  0  0  0  0  0  0  0
  131.0290  115.8130  130.7040 C   0  0  0  0  0  0  0  0  0  0  0  0
  131.6510  114.8870  129.8690 C   0  0  0  0  0  0  0  0  0  0  0  0
  132.8740  115.2200  129.2790 C   0  0  0  0  0  0  0  0  0  0  0  0
  133.4970  114.2590  128.4330 N   0  0  0  0  0  0  0  0  0  0  0  0
  134.8580  113.4180  128.9530 S   0  0  0  0  0  6  0  0  0  0  0  0
  134.1850  112.3090  130.1760 C   0  0  0  0  0  0  0  0  0  0  0  0
  135.2690  112.6160  127.8200 O   0  0  0  0  0  0  0  0  0  0  0  0
  135.7800  114.3220  129.6040 O   0  0  0  0  0  0  0  0  0  0  0  0
  133.4480  116.4740  129.5140 C   0  0  0  0  0  0  0  0  0  0  0  0
  132.8200  117.4000  130.3570 C   0  0  0  0  0  0  0  0  0  0  0  0
  131.6130  117.0570  130.9450 C   0  0  0  0  0  0  0  0  0  0  0  0
  130.3660  118.8870  134.6790 C   0  0  0  0  0  0  0  0  0  0  0  0
  125.8463  117.7182  137.7328 H   0  0  0  0  0  0  0  0  0  0  0  0
  126.8720  118.1309  136.3171 H   0  0  0  0  0  0  0  0  0  0  0  0
  125.9095  116.6143  136.3171 H   0  0  0  0  0  0  0  0  0  0  0  0
  128.2249  115.8639  139.5429 H   0  0  0  0  0  0  0  0  0  0  0  0
  127.9596  117.6367  139.4270 H   0  0  0  0  0  0  0  0  0  0  0  0
  126.5554  116.5165  139.4270 H   0  0  0  0  0  0  0  0  0  0  0  0
  127.5487  114.4543  138.0794 H   0  0  0  0  0  0  0  0  0  0  0  0
  126.6749  114.9105  136.5777 H   0  0  0  0  0  0  0  0  0  0  0  0
  128.4684  114.8090  136.5777 H   0  0  0  0  0  0  0  0  0  0  0  0
  129.3850  116.5290  136.2790 H   0  0  0  0  0  0  0  0  0  0  0  0
  128.2190  120.9098  136.4228 H   0  0  0  0  0  0  0  0  0  0  0  0
  128.1423  122.0636  134.2077 H   0  0  0  0  0  0  0  0  0  0  0  0
  129.4985  121.1928  132.3008 H   0  0  0  0  0  0  0  0  0  0  0  0
  129.4526  116.9660  133.1905 H   0  0  0  0  0  0  0  0  0  0  0  0
  128.7017  117.5722  131.6888 H   0  0  0  0  0  0  0  0  0  0  0  0
  128.4113  116.1654  129.8304 H   0  0  0  0  0  0  0  0  0  0  0  0
  128.8009  114.3975  129.9795 H   0  0  0  0  0  0  0  0  0  0  0  0
  126.9423  116.0198  131.7775 H   0  0  0  0  0  0  0  0  0  0  0  0
  126.4743  114.7588  130.5775 H   0  0  0  0  0  0  0  0  0  0  0  0
  126.1511  113.0375  133.9262 H   0  0  0  0  0  0  0  0  0  0  0  0
  125.1334  113.5196  132.8520 H   0  0  0  0  0  0  0  0  0  0  0  0
  127.7888  111.7668  132.3542 H   0  0  0  0  0  0  0  0  0  0  0  0
  127.0571  112.0271  131.0056 H   0  0  0  0  0  0  0  0  0  0  0  0
  128.3155  115.1814  133.8990 H   0  0  0  0  0  0  0  0  0  0  0  0
  128.7012  113.4190  133.9531 H   0  0  0  0  0  0  0  0  0  0  0  0
  130.6429  114.8666  133.2697 H   0  0  0  0  0  0  0  0  0  0  0  0
  130.1584  113.6169  132.0394 H   0  0  0  0  0  0  0  0  0  0  0  0
  131.1867  113.9085  129.6769 H   0  0  0  0  0  0  0  0  0  0  0  0
  132.8920  113.6860  127.8450 H   0  0  0  0  0  0  0  0  0  0  0  0
  134.4157  112.6891  131.1821 H   0  0  0  0  0  0  0  0  0  0  0  0
  133.0942  112.2428  130.0502 H   0  0  0  0  0  0  0  0  0  0  0  0
  134.6299  111.3109  130.0502 H   0  0  0  0  0  0  0  0  0  0  0  0
  134.4017  116.7354  129.0322 H   0  0  0  0  0  0  0  0  0  0  0  0
  133.2770  118.3821  130.5488 H   0  0  0  0  0  0  0  0  0  0  0  0
  130.9849  117.9870  134.8097 H   0  0  0  0  0  0  0  0  0  0  0  0
  1  2  1  0
  2  3  1  0
  2  4  1  0
  2  5  1  0
  5  6  1  0
  6  7  2  0
  6  8  2  0
  6  9  1  0
  9 10  2  0
 10 11  1  0
 11 12  2  0
 12 13  1  0
 13 14  1  0
 14 15  2  0
 14 16  1  0
 16 17  1  0
 17 18  1  0
 18 19  1  0
 19 20  1  0
 20 21  1  0
 21 22  1  0
 22 23  1  0
 21 24  1  0
 24 25  1  0
 18 26  1  0
 26 27  2  0
 27 28  1  0
 28 29  1  0
 29 30  1  0
 30 31  1  0
 30 32  2  0
 30 33  2  0
 28 34  2  0
 34 35  1  0
 35 36  2  0
 13 37  2  0
 37  9  1  0
 36 16  1  0
 25 18  1  0
 36 26  1  0
 23 21  1  0
  1 38  1  0
  1 39  1  0
  1 40  1  0
  3 41  1  0
  3 42  1  0
  3 43  1  0
  4 44  1  0
  4 45  1  0
  4 46  1  0
  5 47  1  0
 10 48  1  0
 11 49  1  0
 12 50  1  0
 17 51  1  0
 17 52  1  0
 19 53  1  0
 19 54  1  0
 20 55  1  0
 20 56  1  0
 22 57  1  0
 22 58  1  0
 23 59  1  0
 23 60  1  0
 24 61  1  0
 24 62  1  0
 25 63  1  0
 25 64  1  0
 27 65  1  0
 29 66  1  0
 31 67  1  0
 31 68  1  0
 31 69  1  0
 34 70  1  0
 35 71  1  0
 37 72  1  0
M  END
$$$$

     RDKit          3D

 72 76  0  0  0  0  0  0  0  0999 V2000
  127.2010  116.2520  138.9130 C   0  0  0  0  0  0  0  0  0  0  0  0
  127.9520  116.8780  137.7340 C   0  0  0  0  0  0  0  0  0  0  0  0
  128.8370  115.8360  137.0500 C   0  0  0  0  0  0  0  0  0  0  0  0
  126.9220  117.3860  136.7070 C   0  0  0  0  0  0  0  0  0  0  0  0
  128.6920  118.0660  138.2020 N   0  0  0  0  0  0  0  0  0  0  0  0
  130.1750  118.6220  137.6860 S   0  0  0  0  0  6  0  0  0  0  0  0
  130.9330  117.4430  137.3190 O   0  0  0  0  0  0  0  0  0  0  0  0
  130.6950  119.5760  138.6370 O   0  0  0  0  0  0  0  0  0  0  0  0
  129.8130  119.4690  136.1720 C   0  0  0  0  0  0  0  0  0  0  0  0
  128.8600  120.4910  136.1430 C   0  0  0  0  0  0  0  0  0  0  0  0
  128.6010  121.1600  134.9450 C   0  0  0  0  0  0  0  0  0  0  0  0
  129.3070  120.8230  133.7900 C   0  0  0  0  0  0  0  0  0  0  0  0
  130.2880  119.8260  133.8410 C   0  0  0  0  0  0  0  0  0  0  0  0
  131.0260  119.4830  132.6080 C   0  0  0  0  0  0  0  0  0  0  0  0
  131.8310  120.3170  132.2080 O   0  0  0  0  0  0  0  0  0  0  0  0
  130.7560  118.2500  132.0320 N   0  0  0  0  0  0  0  0  0  0  0  0
  129.5740  117.4070  132.2920 C   0  0  0  0  0  0  0  0  0  0  0  0
  129.7970  116.0400  131.5840 C   0  0  0  0  0  0  0  0  0  0  0  0
  128.6330  115.7000  130.6270 C   0  0  0  0  0  0  0  0  0  0  0  0
  127.3490  115.3530  131.3830 C   0  0  0  0  0  0  0  0  0  0  0  0
  127.6060  114.2400  132.3710 C   0  0  0  0  0  0  0  0  0  0  0  0
  126.4190  113.4440  132.8680 C   0  0  0  0  0  0  0  0  0  0  0  0
  127.3990  112.8100  131.9200 C   0  0  0  0  0  0  0  0  0  0  0  0
  128.7200  114.5330  133.3480 C   0  0  0  0  0  0  0  0  0  0  0  0
  130.0070  114.8990  132.6060 C   0  0  0  0  0  0  0  0  0  0  0  0
  131.0790  116.3160  130.8270 C   0  0  0  0  0  0  0  0  0  0  0  0
  131.7450  115.4690  129.9430 C   0  0  0  0  0  0  0  0  0  0  0  0
  132.9440  115.8990  129.3680 C   0  0  0  0  0  0  0  0  0  0  0  0
  133.6140  115.0180  128.4710 N   0  0  0  0  0  0  0  0  0  0  0  0
  133.6310  113.3610  128.7550 S   0  0  0  0  0  6  0  0  0  0  0  0
  132.2590  112.7850  127.7730 C   0  0  0  0  0  0  0  0  0  0  0  0
  134.8440  112.8760  128.1290 O   0  0  0  0  0  0  0  0  0  0  0  0
  133.3500  113.0930  130.1480 O   0  0  0  0  0  0  0  0  0  0  0  0
  133.4500  117.1680  129.6660 C   0  0  0  0  0  0  0  0  0  0  0  0
  132.7790  118.0140  130.5570 C   0  0  0  0  0  0  0  0  0  0  0  0
  131.5950  117.5760  131.1300 C   0  0  0  0  0  0  0  0  0  0  0  0
  130.5370  119.1310  135.0250 C   0  0  0  0  0  0  0  0  0  0  0  0
  127.6344  116.6133  139.8572 H   0  0  0  0  0  0  0  0  0  0  0  0
  126.1395  116.5365  138.8642 H   0  0  0  0  0  0  0  0  0  0  0  0
  127.2897  115.1567  138.8642 H   0  0  0  0  0  0  0  0  0  0  0  0
  129.3497  115.2324  137.8134 H   0  0  0  0  0  0  0  0  0  0  0  0
  128.2145  115.1815  136.4222 H   0  0  0  0  0  0  0  0  0  0  0  0
  129.5836  116.3443  136.4222 H   0  0  0  0  0  0  0  0  0  0  0  0
  126.0569  117.8127  137.2357 H   0  0  0  0  0  0  0  0  0  0  0  0
  127.3841  118.1595  136.0760 H   0  0  0  0  0  0  0  0  0  0  0  0
  126.5896  116.5485  136.0760 H   0  0  0  0  0  0  0  0  0  0  0  0
  128.3260  118.5720  139.0080 H   0  0  0  0  0  0  0  0  0  0  0  0
  128.3169  120.7668  137.0590 H   0  0  0  0  0  0  0  0  0  0  0  0
  127.8397  121.9533  134.9120 H   0  0  0  0  0  0  0  0  0  0  0  0
  129.0934  121.3391  132.8423 H   0  0  0  0  0  0  0  0  0  0  0  0
  129.4560  117.2524  133.3747 H   0  0  0  0  0  0  0  0  0  0  0  0
  128.6647  117.8932  131.9090 H   0  0  0  0  0  0  0  0  0  0  0  0
  128.4401  116.5687  129.9804 H   0  0  0  0  0  0  0  0  0  0  0  0
  128.9265  114.8199  130.0360 H   0  0  0  0  0  0  0  0  0  0  0  0
  126.9945  116.2431  131.9234 H   0  0  0  0  0  0  0  0  0  0  0  0
  126.5877  115.0217  130.6614 H   0  0  0  0  0  0  0  0  0  0  0  0
  126.3782  113.1154  133.9170 H   0  0  0  0  0  0  0  0  0  0  0  0
  125.3295  113.5953  132.8721 H   0  0  0  0  0  0  0  0  0  0  0  0
  128.0745  112.0183  132.2762 H   0  0  0  0  0  0  0  0  0  0  0  0
  127.3219  112.3066  130.9450 H   0  0  0  0  0  0  0  0  0  0  0  0
  128.4233  115.3734  133.9927 H   0  0  0  0  0  0  0  0  0  0  0  0
  128.9045  113.6339  133.9543 H   0  0  0  0  0  0  0  0  0  0  0  0
  130.7597  115.2185  133.3418 H   0  0  0  0  0  0  0  0  0  0  0  0
  130.3371  114.0090  132.0502 H   0  0  0  0  0  0  0  0  0  0  0  0
  131.3335  114.4778  129.7017 H   0  0  0  0  0  0  0  0  0  0  0  0
  133.5730  115.2380  127.4760 H   0  0  0  0  0  0  0  0  0  0  0  0
  131.4501  112.4454  128.4366 H   0  0  0  0  0  0  0  0  0  0  0  0
  131.8925  113.6052  127.1382 H   0  0  0  0  0  0  0  0  0  0  0  0
  132.5879  111.9490  127.1382 H   0  0  0  0  0  0  0  0  0  0  0  0
  134.3853  117.5052  129.1953 H   0  0  0  0  0  0  0  0  0  0  0  0
  133.1838  119.0080  130.7980 H   0  0  0  0  0  0  0  0  0  0  0  0
  131.2906  118.3303  135.0553 H   0  0  0  0  0  0  0  0  0  0  0  0
  1  2  1  0
  2  3  1  0
  2  4  1  0
  2  5  1  0
  5  6  1  0
  6  7  2  0
  6  8  2  0
  6  9  1  0
  9 10  2  0
 10 11  1  0
 11 12  2  0
 12 13  1  0
 13 14  1  0
 14 15  2  0
 14 16  1  0
 16 17  1  0
 17 18  1  0
 18 19  1  0
 19 20  1  0
 20 21  1  0
 21 22  1  0
 22 23  1  0
 21 24  1  0
 24 25  1  0
 18 26  1  0
 26 27  2  0
 27 28  1  0
 28 29  1  0
 29 30  1  0
 30 31  1  0
 30 32  2  0
 30 33  2  0
 28 34  2  0
 34 35  1  0
 35 36  2  0
 13 37  2  0
 37  9  1  0
 36 16  1  0
 25 18  1  0
 36 26  1  0
 23 21  1  0
  1 38  1  0
  1 39  1  0
  1 40  1  0
  3 41  1  0
  3 42  1  0
  3 43  1  0
  4 44  1  0
  4 45  1  0
  4 46  1  0
  5 47  1  0
 10 48  1  0
 11 49  1  0
 12 50  1  0
 17 51  1  0
 17 52  1  0
 19 53  1  0
 19 54  1  0
 20 55  1  0
 20 56  1  0
 22 57  1  0
 22 58  1  0
 23 59  1  0
 23 60  1  0
 24 61  1  0
 24 62  1  0
 25 63  1  0
 25 64  1  0
 27 65  1  0
 29 66  1  0
 31 67  1  0
 31 68  1  0
 31 69  1  0
 34 70  1  0
 35 71  1  0
 37 72  1  0
M  END
$$$$

     RDKit          3D

 72 76  0  0  0  0  0  0  0  0999 V2000
  126.4620  115.5770  136.5830 C   0  0  0  0  0  0  0  0  0  0  0  0
  127.7060  116.2050  137.2190 C   0  0  0  0  0  0  0  0  0  0  0  0
  127.6070  116.1610  138.7440 C   0  0  0  0  0  0  0  0  0  0  0  0
  128.9420  115.3920  136.7900 C   0  0  0  0  0  0  0  0  0  0  0  0
  127.8960  117.5660  136.6790 N   0  0  0  0  0  0  0  0  0  0  0  0
  129.0510  118.6880  137.1050 S   0  0  0  0  0  6  0  0  0  0  0  0
  130.2700  117.9370  137.3240 O   0  0  0  0  0  0  0  0  0  0  0  0
  128.5240  119.5650  138.1240 O   0  0  0  0  0  0  0  0  0  0  0  0
  129.3060  119.6270  135.6240 C   0  0  0  0  0  0  0  0  0  0  0  0
  128.7260  120.8910  135.4780 C   0  0  0  0  0  0  0  0  0  0  0  0
  128.9520  121.6240  134.3120 C   0  0  0  0  0  0  0  0  0  0  0  0
  129.7720  121.1060  133.3090 C   0  0  0  0  0  0  0  0  0  0  0  0
  130.3800  119.8570  133.4840 C   0  0  0  0  0  0  0  0  0  0  0  0
  131.2450  119.3250  132.4120 C   0  0  0  0  0  0  0  0  0  0  0  0
  132.2080  120.0160  132.0970 O   0  0  0  0  0  0  0  0  0  0  0  0
  130.9020  118.0920  131.8770 N   0  0  0  0  0  0  0  0  0  0  0  0
  129.6770  117.3240  132.1720 C   0  0  0  0  0  0  0  0  0  0  0  0
  129.8170  115.9260  131.5050 C   0  0  0  0  0  0  0  0  0  0  0  0
  128.6270  115.6220  130.5680 C   0  0  0  0  0  0  0  0  0  0  0  0
  127.3330  115.3700  131.3440 C   0  0  0  0  0  0  0  0  0  0  0  0
  127.5370  114.2750  132.3650 C   0  0  0  0  0  0  0  0  0  0  0  0
  126.3130  113.5620  132.8950 C   0  0  0  0  0  0  0  0  0  0  0  0
  127.2470  112.8460  131.9600 C   0  0  0  0  0  0  0  0  0  0  0  0
  128.6750  114.5350  133.3240 C   0  0  0  0  0  0  0  0  0  0  0  0
  129.9740  114.8070  132.5600 C   0  0  0  0  0  0  0  0  0  0  0  0
  131.1050  116.1070  130.7300 C   0  0  0  0  0  0  0  0  0  0  0  0
  131.7150  115.1970  129.8670 C   0  0  0  0  0  0  0  0  0  0  0  0
  132.9310  115.5420  129.2700 C   0  0  0  0  0  0  0  0  0  0  0  0
  133.5420  114.5980  128.3960 N   0  0  0  0  0  0  0  0  0  0  0  0
  133.7180  112.9910  128.8610 S   0  0  0  0  0  6  0  0  0  0  0  0
  135.4540  112.6940  128.5830 C   0  0  0  0  0  0  0  0  0  0  0  0
  133.5000  112.9800  130.2930 O   0  0  0  0  0  0  0  0  0  0  0  0
  132.9540  112.1350  127.9820 O   0  0  0  0  0  0  0  0  0  0  0  0
  133.5090  116.7900  129.5240 C   0  0  0  0  0  0  0  0  0  0  0  0
  132.8940  117.6980  130.3940 C   0  0  0  0  0  0  0  0  0  0  0  0
  131.6940  117.3440  130.9890 C   0  0  0  0  0  0  0  0  0  0  0  0
  130.1400  119.1020  134.6330 C   0  0  0  0  0  0  0  0  0  0  0  0
  125.7798  115.2326  137.3742 H   0  0  0  0  0  0  0  0  0  0  0  0
  125.9517  116.3255  135.9590 H   0  0  0  0  0  0  0  0  0  0  0  0
  126.7612  114.7219  135.9590 H   0  0  0  0  0  0  0  0  0  0  0  0
  128.5286  116.5706  139.1832 H   0  0  0  0  0  0  0  0  0  0  0  0
  126.7458  116.7611  139.0730 H   0  0  0  0  0  0  0  0  0  0  0  0
  127.4754  115.1196  139.0730 H   0  0  0  0  0  0  0  0  0  0  0  0
  129.4775  115.0397  137.6839 H   0  0  0  0  0  0  0  0  0  0  0  0
  128.6220  114.5275  136.1898 H   0  0  0  0  0  0  0  0  0  0  0  0
  129.6091  116.0282  136.1898 H   0  0  0  0  0  0  0  0  0  0  0  0
  127.1910  117.9300  136.0390 H   0  0  0  0  0  0  0  0  0  0  0  0
  128.0949  121.3054  136.2780 H   0  0  0  0  0  0  0  0  0  0  0  0
  128.4833  122.6108  134.1837 H   0  0  0  0  0  0  0  0  0  0  0  0
  129.9402  121.6769  132.3840 H   0  0  0  0  0  0  0  0  0  0  0  0
  129.5608  117.2091  133.2598 H   0  0  0  0  0  0  0  0  0  0  0  0
  128.7926  117.8483  131.7809 H   0  0  0  0  0  0  0  0  0  0  0  0
  128.4763  116.4800  129.8963 H   0  0  0  0  0  0  0  0  0  0  0  0
  128.8659  114.7093  130.0024 H   0  0  0  0  0  0  0  0  0  0  0  0
  127.0330  116.2946  131.8589 H   0  0  0  0  0  0  0  0  0  0  0  0
  126.5483  115.0591  130.6387 H   0  0  0  0  0  0  0  0  0  0  0  0
  126.2639  113.2683  133.9539 H   0  0  0  0  0  0  0  0  0  0  0  0
  125.2336  113.7738  132.9027 H   0  0  0  0  0  0  0  0  0  0  0  0
  127.8808  112.0291  132.3354 H   0  0  0  0  0  0  0  0  0  0  0  0
  127.1330  112.3182  131.0017 H   0  0  0  0  0  0  0  0  0  0  0  0
  128.4313  115.4095  133.9452 H   0  0  0  0  0  0  0  0  0  0  0  0
  128.8156  113.6458  133.9561 H   0  0  0  0  0  0  0  0  0  0  0  0
  130.7502  115.1068  133.2794 H   0  0  0  0  0  0  0  0  0  0  0  0
  130.2493  113.8836  132.0294 H   0  0  0  0  0  0  0  0  0  0  0  0
  131.2468  114.2235  129.6595 H   0  0  0  0  0  0  0  0  0  0  0  0
  133.3570  114.6910  127.3970 H   0  0  0  0  0  0  0  0  0  0  0  0
  135.9704  112.6057  129.5502 H   0  0  0  0  0  0  0  0  0  0  0  0
  135.5798  111.7613  128.0136 H   0  0  0  0  0  0  0  0  0  0  0  0
  135.8828  113.5318  128.0136 H   0  0  0  0  0  0  0  0  0  0  0  0
  134.4565  117.0608  129.0352 H   0  0  0  0  0  0  0  0  0  0  0  0
  133.3552  118.6749  130.6015 H   0  0  0  0  0  0  0  0  0  0  0  0
  130.5996  118.1103  134.7566 H   0  0  0  0  0  0  0  0  0  0  0  0
  1  2  1  0
  2  3  1  0
  2  4  1  0
  2  5  1  0
  5  6  1  0
  6  7  2  0
  6  8  2  0
  6  9  1  0
  9 10  2  0
 10 11  1  0
 11 12  2  0
 12 13  1  0
 13 14  1  0
 14 15  2  0
 14 16  1  0
 16 17  1  0
 17 18  1  0
 18 19  1  0
 19 20  1  0
 20 21  1  0
 21 22  1  0
 22 23  1  0
 21 24  1  0
 24 25  1  0
 18 26  1  0
 26 27  2  0
 27 28  1  0
 28 29  1  0
 29 30  1  0
 30 31  1  0
 30 32  2  0
 30 33  2  0
 28 34  2  0
 34 35  1  0
 35 36  2  0
 13 37  2  0
 37  9  1  0
 36 16  1  0
 25 18  1  0
 36 26  1  0
 23 21  1  0
  1 38  1  0
  1 39  1  0
  1 40  1  0
  3 41  1  0
  3 42  1  0
  3 43  1  0
  4 44  1  0
  4 45  1  0
  4 46  1  0
  5 47  1  0
 10 48  1  0
 11 49  1  0
 12 50  1  0
 17 51  1  0
 17 52  1  0
 19 53  1  0
 19 54  1  0
 20 55  1  0
 20 56  1  0
 22 57  1  0
 22 58  1  0
 23 59  1  0
 23 60  1  0
 24 61  1  0
 24 62  1  0
 25 63  1  0
 25 64  1  0
 27 65  1  0
 29 66  1  0
 31 67  1  0
 31 68  1  0
 31 69  1  0
 34 70  1  0
 35 71  1  0
 37 72  1  0
M  END
$$$$

     RDKit          3D

 72 76  0  0  0  0  0  0  0  0999 V2000
  136.2770  113.1880  131.2010 C   0  0  0  0  0  0  0  0  0  0  0  0
  135.7690  113.1330  129.7570 C   0  0  0  0  0  0  0  0  0  0  0  0
  136.8570  112.5930  128.8270 C   0  0  0  0  0  0  0  0  0  0  0  0
  134.5630  112.1770  129.6950 C   0  0  0  0  0  0  0  0  0  0  0  0
  135.2650  114.4640  129.3660 N   0  0  0  0  0  0  0  0  0  0  0  0
  133.6890  114.9230  129.0850 S   0  0  0  0  0  6  0  0  0  0  0  0
  132.8970  114.2590  130.1000 O   0  0  0  0  0  0  0  0  0  0  0  0
  133.3810  114.7710  127.6820 O   0  0  0  0  0  0  0  0  0  0  0  0
  133.6650  116.6490  129.4880 C   0  0  0  0  0  0  0  0  0  0  0  0
  134.7270  117.4780  129.1130 C   0  0  0  0  0  0  0  0  0  0  0  0
  134.6840  118.8380  129.4230 C   0  0  0  0  0  0  0  0  0  0  0  0
  133.5750  119.3690  130.0830 C   0  0  0  0  0  0  0  0  0  0  0  0
  132.5000  118.5370  130.4160 C   0  0  0  0  0  0  0  0  0  0  0  0
  131.3350  119.1170  131.1140 C   0  0  0  0  0  0  0  0  0  0  0  0
  131.1020  120.3000  130.8910 O   0  0  0  0  0  0  0  0  0  0  0  0
  130.6050  118.2710  131.9370 N   0  0  0  0  0  0  0  0  0  0  0  0
  130.0480  116.9570  131.5610 C   0  0  0  0  0  0  0  0  0  0  0  0
  129.1450  116.4690  132.7300 C   0  0  0  0  0  0  0  0  0  0  0  0
  129.5700  115.0710  133.2290 C   0  0  0  0  0  0  0  0  0  0  0  0
  129.2380  113.9720  132.2180 C   0  0  0  0  0  0  0  0  0  0  0  0
  127.7720  114.0170  131.8550 C   0  0  0  0  0  0  0  0  0  0  0  0
  127.1510  112.7740  131.2590 C   0  0  0  0  0  0  0  0  0  0  0  0
  126.8020  113.1830  132.6630 C   0  0  0  0  0  0  0  0  0  0  0  0
  127.3100  115.3580  131.3360 C   0  0  0  0  0  0  0  0  0  0  0  0
  127.6520  116.4700  132.3300 C   0  0  0  0  0  0  0  0  0  0  0  0
  129.4170  117.5380  133.7670 C   0  0  0  0  0  0  0  0  0  0  0  0
  128.9320  117.6020  135.0720 C   0  0  0  0  0  0  0  0  0  0  0  0
  129.2730  118.6980  135.8680 C   0  0  0  0  0  0  0  0  0  0  0  0
  128.7650  118.7490  137.1970 N   0  0  0  0  0  0  0  0  0  0  0  0
  129.4710  117.8330  138.4180 S   0  0  0  0  0  6  0  0  0  0  0  0
  128.4560  116.3680  138.4410 C   0  0  0  0  0  0  0  0  0  0  0  0
  130.7720  117.4510  137.9080 O   0  0  0  0  0  0  0  0  0  0  0  0
  129.3360  118.5110  139.6880 O   0  0  0  0  0  0  0  0  0  0  0  0
  130.1040  119.7030  135.3610 C   0  0  0  0  0  0  0  0  0  0  0  0
  130.5850  119.6360  134.0480 C   0  0  0  0  0  0  0  0  0  0  0  0
  130.2350  118.5500  133.2630 C   0  0  0  0  0  0  0  0  0  0  0  0
  132.5430  117.1700  130.1370 C   0  0  0  0  0  0  0  0  0  0  0  0
  135.4266  113.0959  131.8926 H   0  0  0  0  0  0  0  0  0  0  0  0
  136.9813  112.3609  131.3737 H   0  0  0  0  0  0  0  0  0  0  0  0
  136.7879  114.1467  131.3737 H   0  0  0  0  0  0  0  0  0  0  0  0
  137.6825  112.1833  129.4275 H   0  0  0  0  0  0  0  0  0  0  0  0
  136.4361  111.7992  128.1924 H   0  0  0  0  0  0  0  0  0  0  0  0
  137.2347  113.4082  128.1924 H   0  0  0  0  0  0  0  0  0  0  0  0
  134.2432  111.9235  130.7165 H   0  0  0  0  0  0  0  0  0  0  0  0
  133.7343  112.6662  129.1621 H   0  0  0  0  0  0  0  0  0  0  0  0
  134.8502  111.2585  129.1621 H   0  0  0  0  0  0  0  0  0  0  0  0
  135.9470  115.1850  129.1330 H   0  0  0  0  0  0  0  0  0  0  0  0
  135.5917  117.0603  128.5765 H   0  0  0  0  0  0  0  0  0  0  0  0
  135.5246  119.4917  129.1470 H   0  0  0  0  0  0  0  0  0  0  0  0
  133.5458  120.4380  130.3406 H   0  0  0  0  0  0  0  0  0  0  0  0
  129.4508  117.0531  130.6423 H   0  0  0  0  0  0  0  0  0  0  0  0
  130.8579  116.2361  131.3754 H   0  0  0  0  0  0  0  0  0  0  0  0
  130.6556  115.0730  133.4066 H   0  0  0  0  0  0  0  0  0  0  0  0
  129.0138  114.8587  134.1540 H   0  0  0  0  0  0  0  0  0  0  0  0
  129.8411  114.1203  131.3101 H   0  0  0  0  0  0  0  0  0  0  0  0
  129.4651  112.9936  132.6665 H   0  0  0  0  0  0  0  0  0  0  0  0
  126.4020  112.8639  130.4584 H   0  0  0  0  0  0  0  0  0  0  0  0
  127.5421  111.8583  130.7916 H   0  0  0  0  0  0  0  0  0  0  0  0
  125.7982  113.5721  132.8886 H   0  0  0  0  0  0  0  0  0  0  0  0
  126.8326  112.6903  133.6460 H   0  0  0  0  0  0  0  0  0  0  0  0
  127.8079  115.5651  130.3772 H   0  0  0  0  0  0  0  0  0  0  0  0
  126.2187  115.3279  131.2009 H   0  0  0  0  0  0  0  0  0  0  0  0
  127.4107  117.4400  131.8707 H   0  0  0  0  0  0  0  0  0  0  0  0
  127.0620  116.2958  133.2419 H   0  0  0  0  0  0  0  0  0  0  0  0
  128.2904  116.8016  135.4691 H   0  0  0  0  0  0  0  0  0  0  0  0
  128.4270  119.6490  137.5390 H   0  0  0  0  0  0  0  0  0  0  0  0
  128.2548  116.0776  139.4827 H   0  0  0  0  0  0  0  0  0  0  0  0
  127.5051  116.5726  137.9272 H   0  0  0  0  0  0  0  0  0  0  0  0
  128.9817  115.5496  137.9272 H   0  0  0  0  0  0  0  0  0  0  0  0
  130.3820  120.5539  136.0002 H   0  0  0  0  0  0  0  0  0  0  0  0
  131.2296  120.4319  133.6468 H   0  0  0  0  0  0  0  0  0  0  0  0
  131.7076  116.5141  130.4233 H   0  0  0  0  0  0  0  0  0  0  0  0
  1  2  1  0
  2  3  1  0
  2  4  1  0
  2  5  1  0
  5  6  1  0
  6  7  2  0
  6  8  2  0
  6  9  1  0
  9 10  2  0
 10 11  1  0
 11 12  2  0
 12 13  1  0
 13 14  1  0
 14 15  2  0
 14 16  1  0
 16 17  1  0
 17 18  1  0
 18 19  1  0
 19 20  1  0
 20 21  1  0
 21 22  1  0
 22 23  1  0
 21 24  1  0
 24 25  1  0
 18 26  1  0
 26 27  2  0
 27 28  1  0
 28 29  1  0
 29 30  1  0
 30 31  1  0
 30 32  2  0
 30 33  2  0
 28 34  2  0
 34 35  1  0
 35 36  2  0
 13 37  2  0
 37  9  1  0
 36 16  1  0
 25 18  1  0
 36 26  1  0
 23 21  1  0
  1 38  1  0
  1 39  1  0
  1 40  1  0
  3 41  1  0
  3 42  1  0
  3 43  1  0
  4 44  1  0
  4 45  1  0
  4 46  1  0
  5 47  1  0
 10 48  1  0
 11 49  1  0
 12 50  1  0
 17 51  1  0
 17 52  1  0
 19 53  1  0
 19 54  1  0
 20 55  1  0
 20 56  1  0
 22 57  1  0
 22 58  1  0
 23 59  1  0
 23 60  1  0
 24 61  1  0
 24 62  1  0
 25 63  1  0
 25 64  1  0
 27 65  1  0
 29 66  1  0
 31 67  1  0
 31 68  1  0
 31 69  1  0
 34 70  1  0
 35 71  1  0
 37 72  1  0
M  END
$$$$

     RDKit          3D

 72 76  0  0  0  0  0  0  0  0999 V2000
  134.1960  112.3300  130.1080 C   0  0  0  0  0  0  0  0  0  0  0  0
  135.3900  113.2440  129.8160 C   0  0  0  0  0  0  0  0  0  0  0  0
  136.4210  113.1500  130.9400 C   0  0  0  0  0  0  0  0  0  0  0  0
  136.0570  112.7800  128.5080 C   0  0  0  0  0  0  0  0  0  0  0  0
  134.9050  114.6170  129.5710 N   0  0  0  0  0  0  0  0  0  0  0  0
  133.4010  115.0950  129.0380 S   0  0  0  0  0  6  0  0  0  0  0  0
  132.4450  114.3720  129.8510 O   0  0  0  0  0  0  0  0  0  0  0  0
  133.3540  115.0300  127.5970 O   0  0  0  0  0  0  0  0  0  0  0  0
  133.2900  116.7930  129.5340 C   0  0  0  0  0  0  0  0  0  0  0  0
  134.2000  117.7350  129.0450 C   0  0  0  0  0  0  0  0  0  0  0  0
  134.0860  119.0710  129.4320 C   0  0  0  0  0  0  0  0  0  0  0  0
  133.0550  119.4660  130.2850 C   0  0  0  0  0  0  0  0  0  0  0  0
  132.1250  118.5210  130.7360 C   0  0  0  0  0  0  0  0  0  0  0  0
  131.0400  118.9570  131.6380 C   0  0  0  0  0  0  0  0  0  0  0  0
  130.7690  120.1540  131.6220 O   0  0  0  0  0  0  0  0  0  0  0  0
  130.4190  117.9780  132.3990 N   0  0  0  0  0  0  0  0  0  0  0  0
  129.7470  116.7700  131.8850 C   0  0  0  0  0  0  0  0  0  0  0  0
  129.0290  116.0780  133.0790 C   0  0  0  0  0  0  0  0  0  0  0  0
  129.4660  114.6030  133.2250 C   0  0  0  0  0  0  0  0  0  0  0  0
  128.9180  113.7260  132.0970 C   0  0  0  0  0  0  0  0  0  0  0  0
  127.4160  113.8610  132.0090 C   0  0  0  0  0  0  0  0  0  0  0  0
  126.6460  112.7660  131.3060 C   0  0  0  0  0  0  0  0  0  0  0  0
  126.5570  112.8990  132.8000 C   0  0  0  0  0  0  0  0  0  0  0  0
  126.9370  115.2840  131.8400 C   0  0  0  0  0  0  0  0  0  0  0  0
  127.4920  116.1770  132.9520 C   0  0  0  0  0  0  0  0  0  0  0  0
  129.5210  116.9210  134.2360 C   0  0  0  0  0  0  0  0  0  0  0  0
  129.2650  116.7370  135.5940 C   0  0  0  0  0  0  0  0  0  0  0  0
  129.7850  117.6540  136.5110 C   0  0  0  0  0  0  0  0  0  0  0  0
  129.5090  117.4540  137.8940 N   0  0  0  0  0  0  0  0  0  0  0  0
  128.0390  117.9400  138.5510 S   0  0  0  0  0  6  0  0  0  0  0  0
  127.1720  116.3950  138.7490 C   0  0  0  0  0  0  0  0  0  0  0  0
  128.3540  118.4330  139.8760 O   0  0  0  0  0  0  0  0  0  0  0  0
  127.3180  118.7590  137.6010 O   0  0  0  0  0  0  0  0  0  0  0  0
  130.5660  118.7260  136.0670 C   0  0  0  0  0  0  0  0  0  0  0  0
  130.8170  118.9080  134.7010 C   0  0  0  0  0  0  0  0  0  0  0  0
  130.2890  118.0000  133.7980 C   0  0  0  0  0  0  0  0  0  0  0  0
  132.2450  117.1770  130.3780 C   0  0  0  0  0  0  0  0  0  0  0  0
  134.0672  112.2314  131.1960 H   0  0  0  0  0  0  0  0  0  0  0  0
  133.2858  112.7643  129.6689 H   0  0  0  0  0  0  0  0  0  0  0  0
  134.3776  111.3379  129.6689 H   0  0  0  0  0  0  0  0  0  0  0  0
  135.9087  113.1967  131.9123 H   0  0  0  0  0  0  0  0  0  0  0  0
  136.9667  112.1984  130.8584 H   0  0  0  0  0  0  0  0  0  0  0  0
  137.1298  113.9872  130.8584 H   0  0  0  0  0  0  0  0  0  0  0  0
  136.9390  112.1664  128.7438 H   0  0  0  0  0  0  0  0  0  0  0  0
  135.3413  112.1838  127.9229 H   0  0  0  0  0  0  0  0  0  0  0  0
  136.3671  113.6583  127.9229 H   0  0  0  0  0  0  0  0  0  0  0  0
  135.5790  115.3800  129.6290 H   0  0  0  0  0  0  0  0  0  0  0  0
  135.0017  117.4247  128.3587 H   0  0  0  0  0  0  0  0  0  0  0  0
  134.8097  119.8133  129.0642 H   0  0  0  0  0  0  0  0  0  0  0  0
  132.9729  120.5161  130.6022 H   0  0  0  0  0  0  0  0  0  0  0  0
  129.0105  117.0500  131.1174 H   0  0  0  0  0  0  0  0  0  0  0  0
  130.4803  116.0873  131.4309 H   0  0  0  0  0  0  0  0  0  0  0  0
  130.5649  114.5554  133.2094 H   0  0  0  0  0  0  0  0  0  0  0  0
  129.0636  114.2229  134.1756 H   0  0  0  0  0  0  0  0  0  0  0  0
  129.3668  114.0397  131.1430 H   0  0  0  0  0  0  0  0  0  0  0  0
  129.1708  112.6760  132.3058 H   0  0  0  0  0  0  0  0  0  0  0  0
  125.7784  113.0200  130.6793 H   0  0  0  0  0  0  0  0  0  0  0  0
  126.9098  111.9533  130.6133 H   0  0  0  0  0  0  0  0  0  0  0  0
  125.6245  113.2505  133.2658 H   0  0  0  0  0  0  0  0  0  0  0  0
  126.7288  112.2241  133.6515 H   0  0  0  0  0  0  0  0  0  0  0  0
  127.2771  115.6663  130.8662 H   0  0  0  0  0  0  0  0  0  0  0  0
  125.8383  115.2959  131.8919 H   0  0  0  0  0  0  0  0  0  0  0  0
  127.2226  117.2209  132.7336 H   0  0  0  0  0  0  0  0  0  0  0  0
  127.0555  115.8371  133.9028 H   0  0  0  0  0  0  0  0  0  0  0  0
  128.6630  115.8831  135.9382 H   0  0  0  0  0  0  0  0  0  0  0  0
  129.8580  116.5980  138.3250 H   0  0  0  0  0  0  0  0  0  0  0  0
  127.0500  116.1777  139.8204 H   0  0  0  0  0  0  0  0  0  0  0  0
  126.1822  116.4665  138.2744 H   0  0  0  0  0  0  0  0  0  0  0  0
  127.7487  115.5875  138.2744 H   0  0  0  0  0  0  0  0  0  0  0  0
  130.9870  119.4327  136.7973 H   0  0  0  0  0  0  0  0  0  0  0  0
  131.4228  119.7571  134.3515 H   0  0  0  0  0  0  0  0  0  0  0  0
  131.5283  116.4323  130.7544 H   0  0  0  0  0  0  0  0  0  0  0  0
  1  2  1  0
  2  3  1  0
  2  4  1  0
  2  5  1  0
  5  6  1  0
  6  7  2  0
  6  8  2  0
  6  9  1  0
  9 10  2  0
 10 11  1  0
 11 12  2  0
 12 13  1  0
 13 14  1  0
 14 15  2  0
 14 16  1  0
 16 17  1  0
 17 18  1  0
 18 19  1  0
 19 20  1  0
 20 21  1  0
 21 22  1  0
 22 23  1  0
 21 24  1  0
 24 25  1  0
 18 26  1  0
 26 27  2  0
 27 28  1  0
 28 29  1  0
 29 30  1  0
 30 31  1  0
 30 32  2  0
 30 33  2  0
 28 34  2  0
 34 35  1  0
 35 36  2  0
 13 37  2  0
 37  9  1  0
 36 16  1  0
 25 18  1  0
 36 26  1  0
 23 21  1  0
  1 38  1  0
  1 39  1  0
  1 40  1  0
  3 41  1  0
  3 42  1  0
  3 43  1  0
  4 44  1  0
  4 45  1  0
  4 46  1  0
  5 47  1  0
 10 48  1  0
 11 49  1  0
 12 50  1  0
 17 51  1  0
 17 52  1  0
 19 53  1  0
 19 54  1  0
 20 55  1  0
 20 56  1  0
 22 57  1  0
 22 58  1  0
 23 59  1  0
 23 60  1  0
 24 61  1  0
 24 62  1  0
 25 63  1  0
 25 64  1  0
 27 65  1  0
 29 66  1  0
 31 67  1  0
 31 68  1  0
 31 69  1  0
 34 70  1  0
 35 71  1  0
 37 72  1  0
M  END
$$$$

     RDKit          3D

 72 76  0  0  0  0  0  0  0  0999 V2000
  127.2020  116.6100  138.6940 C   0  0  0  0  0  0  0  0  0  0  0  0
  128.1260  116.9410  137.5180 C   0  0  0  0  0  0  0  0  0  0  0  0
  129.1180  115.8020  137.2810 C   0  0  0  0  0  0  0  0  0  0  0  0
  127.2690  117.1080  136.2500 C   0  0  0  0  0  0  0  0  0  0  0  0
  128.7720  118.2460  137.7570 N   0  0  0  0  0  0  0  0  0  0  0  0
  130.2470  118.7800  137.1960 S   0  0  0  0  0  6  0  0  0  0  0  0
  131.0190  117.5870  136.9170 O   0  0  0  0  0  0  0  0  0  0  0  0
  130.7560  119.8100  138.0710 O   0  0  0  0  0  0  0  0  0  0  0  0
  129.8710  119.5060  135.6230 C   0  0  0  0  0  0  0  0  0  0  0  0
  129.0080  120.6030  135.5380 C   0  0  0  0  0  0  0  0  0  0  0  0
  128.7380  121.1730  134.2920 C   0  0  0  0  0  0  0  0  0  0  0  0
  129.3450  120.6630  133.1440 C   0  0  0  0  0  0  0  0  0  0  0  0
  130.2390  119.5910  133.2480 C   0  0  0  0  0  0  0  0  0  0  0  0
  130.8720  119.0650  132.0210 C   0  0  0  0  0  0  0  0  0  0  0  0
  131.6180  119.8340  131.4230 O   0  0  0  0  0  0  0  0  0  0  0  0
  130.5820  117.7550  131.6720 N   0  0  0  0  0  0  0  0  0  0  0  0
  129.3390  117.0240  131.9860 C   0  0  0  0  0  0  0  0  0  0  0  0
  129.5420  115.5370  131.5760 C   0  0  0  0  0  0  0  0  0  0  0  0
  128.4400  115.0610  130.6050 C   0  0  0  0  0  0  0  0  0  0  0  0
  127.0840  114.9170  131.2980 C   0  0  0  0  0  0  0  0  0  0  0  0
  127.2020  114.0110  132.5010 C   0  0  0  0  0  0  0  0  0  0  0  0
  125.9380  113.3740  133.0350 C   0  0  0  0  0  0  0  0  0  0  0  0
  126.9530  112.5300  132.3160 C   0  0  0  0  0  0  0  0  0  0  0  0
  128.2500  114.4480  133.4970 C   0  0  0  0  0  0  0  0  0  0  0  0
  129.6100  114.6120  132.8130 C   0  0  0  0  0  0  0  0  0  0  0  0
  130.8920  115.6100  130.8940 C   0  0  0  0  0  0  0  0  0  0  0  0
  131.5790  114.5820  130.2520 C   0  0  0  0  0  0  0  0  0  0  0  0
  132.8410  114.8440  129.7120 C   0  0  0  0  0  0  0  0  0  0  0  0
  133.5300  113.7800  129.0630 N   0  0  0  0  0  0  0  0  0  0  0  0
  133.2780  113.4690  127.4300 S   0  0  0  0  0  6  0  0  0  0  0  0
  131.7840  112.4960  127.4460 C   0  0  0  0  0  0  0  0  0  0  0  0
  132.9540  114.7510  126.8400 O   0  0  0  0  0  0  0  0  0  0  0  0
  134.3550  112.6580  126.9080 O   0  0  0  0  0  0  0  0  0  0  0  0
  133.3900  116.1280  129.8020 C   0  0  0  0  0  0  0  0  0  0  0  0
  132.6970  117.1570  130.4520 C   0  0  0  0  0  0  0  0  0  0  0  0
  131.4510  116.8850  130.9930 C   0  0  0  0  0  0  0  0  0  0  0  0
  130.4960  118.9940  134.4830 C   0  0  0  0  0  0  0  0  0  0  0  0
  127.7304  116.7993  139.6400 H   0  0  0  0  0  0  0  0  0  0  0  0
  126.3031  117.2420  138.6432 H   0  0  0  0  0  0  0  0  0  0  0  0
  126.9089  115.5510  138.6432 H   0  0  0  0  0  0  0  0  0  0  0  0
  129.4615  115.4076  138.2487 H   0  0  0  0  0  0  0  0  0  0  0  0
  128.6258  114.9996  136.7119 H   0  0  0  0  0  0  0  0  0  0  0  0
  129.9804  116.1793  136.7119 H   0  0  0  0  0  0  0  0  0  0  0  0
  126.2265  117.3111  136.5362 H   0  0  0  0  0  0  0  0  0  0  0  0
  127.6559  117.9477  135.6539 H   0  0  0  0  0  0  0  0  0  0  0  0
  127.3123  116.1845  135.6539 H   0  0  0  0  0  0  0  0  0  0  0  0
  128.3360  118.8820  138.4240 H   0  0  0  0  0  0  0  0  0  0  0  0
  128.5447  121.0144  136.4469 H   0  0  0  0  0  0  0  0  0  0  0  0
  128.0462  122.0248  134.2157 H   0  0  0  0  0  0  0  0  0  0  0  0
  129.1218  121.1019  132.1604 H   0  0  0  0  0  0  0  0  0  0  0  0
  129.1292  117.0892  133.0638 H   0  0  0  0  0  0  0  0  0  0  0  0
  128.4898  117.4597  131.4392 H   0  0  0  0  0  0  0  0  0  0  0  0
  128.3454  115.7933  129.7896 H   0  0  0  0  0  0  0  0  0  0  0  0
  128.7309  114.0717  130.2219 H   0  0  0  0  0  0  0  0  0  0  0  0
  126.7360  115.9085  131.6235 H   0  0  0  0  0  0  0  0  0  0  0  0
  126.3656  114.4785  130.5897 H   0  0  0  0  0  0  0  0  0  0  0  0
  125.7969  113.2586  134.1198 H   0  0  0  0  0  0  0  0  0  0  0  0
  124.8614  113.5650  132.9144 H   0  0  0  0  0  0  0  0  0  0  0  0
  127.5539  111.7977  132.8752 H   0  0  0  0  0  0  0  0  0  0  0  0
  126.9253  111.8491  131.4525 H   0  0  0  0  0  0  0  0  0  0  0  0
  127.9497  115.4094  133.9391 H   0  0  0  0  0  0  0  0  0  0  0  0
  128.3374  113.6796  134.2792 H   0  0  0  0  0  0  0  0  0  0  0  0
  130.3192  115.0412  133.5361 H   0  0  0  0  0  0  0  0  0  0  0  0
  129.9341  113.6183  132.4703 H   0  0  0  0  0  0  0  0  0  0  0  0
  131.1346  113.5790  130.1713 H   0  0  0  0  0  0  0  0  0  0  0  0
  134.4940  113.6030  129.3440 H   0  0  0  0  0  0  0  0  0  0  0  0
  131.4846  112.3010  128.4863 H   0  0  0  0  0  0  0  0  0  0  0  0
  130.9827  113.0460  126.9308 H   0  0  0  0  0  0  0  0  0  0  0  0
  131.9630  111.5408  126.9308 H   0  0  0  0  0  0  0  0  0  0  0  0
  134.3756  116.3312  129.3578 H   0  0  0  0  0  0  0  0  0  0  0  0
  133.1343  118.1632  130.5315 H   0  0  0  0  0  0  0  0  0  0  0  0
  131.1790  118.1350  134.5577 H   0  0  0  0  0  0  0  0  0  0  0  0
  1  2  1  0
  2  3  1  0
  2  4  1  0
  2  5  1  0
  5  6  1  0
  6  7  2  0
  6  8  2  0
  6  9  1  0
  9 10  2  0
 10 11  1  0
 11 12  2  0
 12 13  1  0
 13 14  1  0
 14 15  2  0
 14 16  1  0
 16 17  1  0
 17 18  1  0
 18 19  1  0
 19 20  1  0
 20 21  1  0
 21 22  1  0
 22 23  1  0
 21 24  1  0
 24 25  1  0
 18 26  1  0
 26 27  2  0
 27 28  1  0
 28 29  1  0
 29 30  1  0
 30 31  1  0
 30 32  2  0
 30 33  2  0
 28 34  2  0
 34 35  1  0
 35 36  2  0
 13 37  2  0
 37  9  1  0
 36 16  1  0
 25 18  1  0
 36 26  1  0
 23 21  1  0
  1 38  1  0
  1 39  1  0
  1 40  1  0
  3 41  1  0
  3 42  1  0
  3 43  1  0
  4 44  1  0
  4 45  1  0
  4 46  1  0
  5 47  1  0
 10 48  1  0
 11 49  1  0
 12 50  1  0
 17 51  1  0
 17 52  1  0
 19 53  1  0
 19 54  1  0
 20 55  1  0
 20 56  1  0
 22 57  1  0
 22 58  1  0
 23 59  1  0
 23 60  1  0
 24 61  1  0
 24 62  1  0
 25 63  1  0
 25 64  1  0
 27 65  1  0
 29 66  1  0
 31 67  1  0
 31 68  1  0
 31 69  1  0
 34 70  1  0
 35 71  1  0
 37 72  1  0
M  END
$$$$

     RDKit          3D

 72 76  0  0  0  0  0  0  0  0999 V2000
  135.6910  112.6200  128.4780 C   0  0  0  0  0  0  0  0  0  0  0  0
  135.2340  113.0720  129.8680 C   0  0  0  0  0  0  0  0  0  0  0  0
  134.1800  112.1140  130.4230 C   0  0  0  0  0  0  0  0  0  0  0  0
  136.4490  113.0560  130.8150 C   0  0  0  0  0  0  0  0  0  0  0  0
  134.7790  114.4750  129.8000 N   0  0  0  0  0  0  0  0  0  0  0  0
  133.3730  115.0670  129.1320 S   0  0  0  0  0  6  0  0  0  0  0  0
  132.2930  114.4690  129.8890 O   0  0  0  0  0  0  0  0  0  0  0  0
  133.4300  114.9470  127.6940 O   0  0  0  0  0  0  0  0  0  0  0  0
  133.3850  116.7870  129.5590 C   0  0  0  0  0  0  0  0  0  0  0  0
  134.4080  117.6230  129.1010 C   0  0  0  0  0  0  0  0  0  0  0  0
  134.3920  118.9790  129.4330 C   0  0  0  0  0  0  0  0  0  0  0  0
  133.3470  119.4990  130.1980 C   0  0  0  0  0  0  0  0  0  0  0  0
  132.3070  118.6600  130.6160 C   0  0  0  0  0  0  0  0  0  0  0  0
  131.2100  119.2280  131.4250 C   0  0  0  0  0  0  0  0  0  0  0  0
  131.0230  120.4350  131.3150 O   0  0  0  0  0  0  0  0  0  0  0  0
  130.4850  118.3470  132.2140 N   0  0  0  0  0  0  0  0  0  0  0  0
  129.9450  117.0400  131.7910 C   0  0  0  0  0  0  0  0  0  0  0  0
  129.0400  116.5040  132.9370 C   0  0  0  0  0  0  0  0  0  0  0  0
  129.4770  115.0940  133.3920 C   0  0  0  0  0  0  0  0  0  0  0  0
  129.1640  114.0260  132.3420 C   0  0  0  0  0  0  0  0  0  0  0  0
  127.7000  114.0670  131.9720 C   0  0  0  0  0  0  0  0  0  0  0  0
  127.0960  112.8380  131.3310 C   0  0  0  0  0  0  0  0  0  0  0  0
  126.7350  113.1960  132.7450 C   0  0  0  0  0  0  0  0  0  0  0  0
  127.2260  115.4200  131.4950 C   0  0  0  0  0  0  0  0  0  0  0  0
  127.5490  116.5010  132.5280 C   0  0  0  0  0  0  0  0  0  0  0  0
  129.2940  117.5400  134.0110 C   0  0  0  0  0  0  0  0  0  0  0  0
  128.8010  117.5540  135.3140 C   0  0  0  0  0  0  0  0  0  0  0  0
  129.1240  118.6280  136.1490 C   0  0  0  0  0  0  0  0  0  0  0  0
  128.6070  118.6280  137.4760 N   0  0  0  0  0  0  0  0  0  0  0  0
  128.1200  117.1920  138.2040 S   0  0  0  0  0  6  0  0  0  0  0  0
  127.9260  117.6690  139.9110 C   0  0  0  0  0  0  0  0  0  0  0  0
  126.7980  116.9240  137.6760 O   0  0  0  0  0  0  0  0  0  0  0  0
  129.1750  116.2080  138.1130 O   0  0  0  0  0  0  0  0  0  0  0  0
  129.9470  119.6580  135.6810 C   0  0  0  0  0  0  0  0  0  0  0  0
  130.4370  119.6400  134.3690 C   0  0  0  0  0  0  0  0  0  0  0  0
  130.1030  118.5770  133.5460 C   0  0  0  0  0  0  0  0  0  0  0  0
  132.3260  117.2970  130.3150 C   0  0  0  0  0  0  0  0  0  0  0  0
  136.4697  111.8498  128.5805 H   0  0  0  0  0  0  0  0  0  0  0  0
  134.8342  112.2042  127.9275 H   0  0  0  0  0  0  0  0  0  0  0  0
  136.0974  113.4813  127.9275 H   0  0  0  0  0  0  0  0  0  0  0  0
  134.2058  112.1375  131.5225 H   0  0  0  0  0  0  0  0  0  0  0  0
  133.1838  112.4222  130.0730 H   0  0  0  0  0  0  0  0  0  0  0  0
  134.3919  111.0929  130.0730 H   0  0  0  0  0  0  0  0  0  0  0  0
  136.1007  113.0606  131.8584 H   0  0  0  0  0  0  0  0  0  0  0  0
  137.0451  112.1499  130.6314 H   0  0  0  0  0  0  0  0  0  0  0  0
  137.0687  113.9461  130.6314 H   0  0  0  0  0  0  0  0  0  0  0  0
  135.4270  115.2040  130.0980 H   0  0  0  0  0  0  0  0  0  0  0  0
  135.2209  117.2146  128.4826 H   0  0  0  0  0  0  0  0  0  0  0  0
  135.2037  119.6380  129.0913 H   0  0  0  0  0  0  0  0  0  0  0  0
  133.3404  120.5644  130.4716 H   0  0  0  0  0  0  0  0  0  0  0  0
  129.3527  117.1599  130.8719 H   0  0  0  0  0  0  0  0  0  0  0  0
  130.7640  116.3345  131.5872 H   0  0  0  0  0  0  0  0  0  0  0  0
  130.5612  115.1016  133.5775 H   0  0  0  0  0  0  0  0  0  0  0  0
  128.9168  114.8447  134.3053 H   0  0  0  0  0  0  0  0  0  0  0  0
  129.7706  114.2119  131.4434 H   0  0  0  0  0  0  0  0  0  0  0  0
  129.4001  113.0355  132.7581 H   0  0  0  0  0  0  0  0  0  0  0  0
  126.3506  112.9465  130.5294 H   0  0  0  0  0  0  0  0  0  0  0  0
  127.4997  111.9427  130.8356 H   0  0  0  0  0  0  0  0  0  0  0  0
  125.7257  113.5664  132.9774 H   0  0  0  0  0  0  0  0  0  0  0  0
  126.7656  112.6709  133.7111 H   0  0  0  0  0  0  0  0  0  0  0  0
  127.7277  115.6648  130.5472 H   0  0  0  0  0  0  0  0  0  0  0  0
  126.1361  115.3825  131.3513 H   0  0  0  0  0  0  0  0  0  0  0  0
  127.2987  117.4832  132.1006 H   0  0  0  0  0  0  0  0  0  0  0  0
  126.9560  116.2887  133.4298 H   0  0  0  0  0  0  0  0  0  0  0  0
  128.1674  116.7328  135.6802 H   0  0  0  0  0  0  0  0  0  0  0  0
  129.0250  119.2750  138.1440 H   0  0  0  0  0  0  0  0  0  0  0  0
  128.2602  116.8473  140.5616 H   0  0  0  0  0  0  0  0  0  0  0  0
  128.5311  118.5653  140.1123 H   0  0  0  0  0  0  0  0  0  0  0  0
  126.8671  117.8886  140.1123 H   0  0  0  0  0  0  0  0  0  0  0  0
  130.2119  120.4901  136.3499 H   0  0  0  0  0  0  0  0  0  0  0  0
  131.0757  120.4555  133.9987 H   0  0  0  0  0  0  0  0  0  0  0  0
  131.5208  116.6354  130.6670 H   0  0  0  0  0  0  0  0  0  0  0  0
  1  2  1  0
  2  3  1  0
  2  4  1  0
  2  5  1  0
  5  6  1  0
  6  7  2  0
  6  8  2  0
  6  9  1  0
  9 10  2  0
 10 11  1  0
 11 12  2  0
 12 13  1  0
 13 14  1  0
 14 15  2  0
 14 16  1  0
 16 17  1  0
 17 18  1  0
 18 19  1  0
 19 20  1  0
 20 21  1  0
 21 22  1  0
 22 23  1  0
 21 24  1  0
 24 25  1  0
 18 26  1  0
 26 27  2  0
 27 28  1  0
 28 29  1  0
 29 30  1  0
 30 31  1  0
 30 32  2  0
 30 33  2  0
 28 34  2  0
 34 35  1  0
 35 36  2  0
 13 37  2  0
 37  9  1  0
 36 16  1  0
 25 18  1  0
 36 26  1  0
 23 21  1  0
  1 38  1  0
  1 39  1  0
  1 40  1  0
  3 41  1  0
  3 42  1  0
  3 43  1  0
  4 44  1  0
  4 45  1  0
  4 46  1  0
  5 47  1  0
 10 48  1  0
 11 49  1  0
 12 50  1  0
 17 51  1  0
 17 52  1  0
 19 53  1  0
 19 54  1  0
 20 55  1  0
 20 56  1  0
 22 57  1  0
 22 58  1  0
 23 59  1  0
 23 60  1  0
 24 61  1  0
 24 62  1  0
 25 63  1  0
 25 64  1  0
 27 65  1  0
 29 66  1  0
 31 67  1  0
 31 68  1  0
 31 69  1  0
 34 70  1  0
 35 71  1  0
 37 72  1  0
M  END
$$$$

     RDKit          3D

 72 76  0  0  0  0  0  0  0  0999 V2000
  132.9290  112.9100  130.5050 C   0  0  0  0  0  0  0  0  0  0  0  0
  132.3980  113.8300  129.4020 C   0  0  0  0  0  0  0  0  0  0  0  0
  133.0000  113.4480  128.0500 C   0  0  0  0  0  0  0  0  0  0  0  0
  130.8690  113.6640  129.3140 C   0  0  0  0  0  0  0  0  0  0  0  0
  132.6410  115.2370  129.7800 N   0  0  0  0  0  0  0  0  0  0  0  0
  133.7390  116.3020  129.1200 S   0  0  0  0  0  6  0  0  0  0  0  0
  133.3380  116.4780  127.7400 O   0  0  0  0  0  0  0  0  0  0  0  0
  135.0800  115.8900  129.4610 O   0  0  0  0  0  0  0  0  0  0  0  0
  133.3910  117.8370  129.9360 C   0  0  0  0  0  0  0  0  0  0  0  0
  134.2720  118.9160  129.8180 C   0  0  0  0  0  0  0  0  0  0  0  0
  133.9740  120.1230  130.4530 C   0  0  0  0  0  0  0  0  0  0  0  0
  132.7900  120.2560  131.1810 C   0  0  0  0  0  0  0  0  0  0  0  0
  131.8970  119.1810  131.2580 C   0  0  0  0  0  0  0  0  0  0  0  0
  130.6500  119.3390  132.0330 C   0  0  0  0  0  0  0  0  0  0  0  0
  130.1410  120.4560  132.0190 O   0  0  0  0  0  0  0  0  0  0  0  0
  130.1620  118.2160  132.6830 N   0  0  0  0  0  0  0  0  0  0  0  0
  129.5830  117.0200  132.0410 C   0  0  0  0  0  0  0  0  0  0  0  0
  128.9940  116.1150  133.1610 C   0  0  0  0  0  0  0  0  0  0  0  0
  129.5750  114.6850  133.0980 C   0  0  0  0  0  0  0  0  0  0  0  0
  129.0590  113.9050  131.8870 C   0  0  0  0  0  0  0  0  0  0  0  0
  127.5480  113.8990  131.8710 C   0  0  0  0  0  0  0  0  0  0  0  0
  126.8530  112.8280  131.0600 C   0  0  0  0  0  0  0  0  0  0  0  0
  126.8230  112.7640  132.5620 C   0  0  0  0  0  0  0  0  0  0  0  0
  126.9290  115.2760  131.9040 C   0  0  0  0  0  0  0  0  0  0  0  0
  127.4500  116.0740  133.1020 C   0  0  0  0  0  0  0  0  0  0  0  0
  129.4580  116.8520  134.3990 C   0  0  0  0  0  0  0  0  0  0  0  0
  129.2870  116.4750  135.7290 C   0  0  0  0  0  0  0  0  0  0  0  0
  129.7610  117.3170  136.7380 C   0  0  0  0  0  0  0  0  0  0  0  0
  129.5720  116.9180  138.0920 N   0  0  0  0  0  0  0  0  0  0  0  0
  128.0440  116.9690  138.7930 S   0  0  0  0  0  6  0  0  0  0  0  0
  127.0810  117.8270  137.5630 C   0  0  0  0  0  0  0  0  0  0  0  0
  127.5880  115.5950  138.8200 O   0  0  0  0  0  0  0  0  0  0  0  0
  128.0780  117.7690  139.9970 O   0  0  0  0  0  0  0  0  0  0  0  0
  130.4140  118.5090  136.4090 C   0  0  0  0  0  0  0  0  0  0  0  0
  130.5810  118.8850  135.0700 C   0  0  0  0  0  0  0  0  0  0  0  0
  130.0990  118.0490  134.0760 C   0  0  0  0  0  0  0  0  0  0  0  0
  132.1970  117.9600  130.6510 C   0  0  0  0  0  0  0  0  0  0  0  0
  132.6827  113.3367  131.4885 H   0  0  0  0  0  0  0  0  0  0  0  0
  132.4650  111.9173  130.4094 H   0  0  0  0  0  0  0  0  0  0  0  0
  134.0207  112.8152  130.4094 H   0  0  0  0  0  0  0  0  0  0  0  0
  133.9190  112.8649  128.2094 H   0  0  0  0  0  0  0  0  0  0  0  0
  132.2759  112.8438  127.4838 H   0  0  0  0  0  0  0  0  0  0  0  0
  133.2383  114.3605  127.4838 H   0  0  0  0  0  0  0  0  0  0  0  0
  130.4462  113.6181  130.3284 H   0  0  0  0  0  0  0  0  0  0  0  0
  130.4376  114.5206  128.7754 H   0  0  0  0  0  0  0  0  0  0  0  0
  130.6315  112.7348  128.7754 H   0  0  0  0  0  0  0  0  0  0  0  0
  132.1680  115.5990  130.6070 H   0  0  0  0  0  0  0  0  0  0  0  0
  135.1949  118.8145  129.2281 H   0  0  0  0  0  0  0  0  0  0  0  0
  134.6723  120.9697  130.3798 H   0  0  0  0  0  0  0  0  0  0  0  0
  132.5598  121.2024  131.6923 H   0  0  0  0  0  0  0  0  0  0  0  0
  128.7862  117.3186  131.3439 H   0  0  0  0  0  0  0  0  0  0  0  0
  130.3544  116.4770  131.4752 H   0  0  0  0  0  0  0  0  0  0  0  0
  130.6713  114.7503  133.0365 H   0  0  0  0  0  0  0  0  0  0  0  0
  129.2563  114.1505  134.0051 H   0  0  0  0  0  0  0  0  0  0  0  0
  129.4296  114.3784  130.9659 H   0  0  0  0  0  0  0  0  0  0  0  0
  129.4199  112.8678  131.9496 H   0  0  0  0  0  0  0  0  0  0  0  0
  125.9363  113.0696  130.5021 H   0  0  0  0  0  0  0  0  0  0  0  0
  127.1597  112.1387  130.2595 H   0  0  0  0  0  0  0  0  0  0  0  0
  125.8846  112.9591  133.1017 H   0  0  0  0  0  0  0  0  0  0  0  0
  127.0987  112.0091  133.3130 H   0  0  0  0  0  0  0  0  0  0  0  0
  127.1842  115.8091  130.9763 H   0  0  0  0  0  0  0  0  0  0  0  0
  125.8378  115.1715  131.9958 H   0  0  0  0  0  0  0  0  0  0  0  0
  127.0724  117.1047  133.0302 H   0  0  0  0  0  0  0  0  0  0  0  0
  127.0942  115.5751  134.0155 H   0  0  0  0  0  0  0  0  0  0  0  0
  128.7863  115.5286  135.9810 H   0  0  0  0  0  0  0  0  0  0  0  0
  130.1260  116.1320  138.4340 H   0  0  0  0  0  0  0  0  0  0  0  0
  126.3485  118.4796  138.0605 H   0  0  0  0  0  0  0  0  0  0  0  0
  127.7475  118.4361  136.9347 H   0  0  0  0  0  0  0  0  0  0  0  0
  126.5526  117.0949  136.9347 H   0  0  0  0  0  0  0  0  0  0  0  0
  130.8002  119.1575  137.2092 H   0  0  0  0  0  0  0  0  0  0  0  0
  131.0860  119.8276  134.8123 H   0  0  0  0  0  0  0  0  0  0  0  0
  131.5049  117.1091  130.7343 H   0  0  0  0  0  0  0  0  0  0  0  0
  1  2  1  0
  2  3  1  0
  2  4  1  0
  2  5  1  0
  5  6  1  0
  6  7  2  0
  6  8  2  0
  6  9  1  0
  9 10  2  0
 10 11  1  0
 11 12  2  0
 12 13  1  0
 13 14  1  0
 14 15  2  0
 14 16  1  0
 16 17  1  0
 17 18  1  0
 18 19  1  0
 19 20  1  0
 20 21  1  0
 21 22  1  0
 22 23  1  0
 21 24  1  0
 24 25  1  0
 18 26  1  0
 26 27  2  0
 27 28  1  0
 28 29  1  0
 29 30  1  0
 30 31  1  0
 30 32  2  0
 30 33  2  0
 28 34  2  0
 34 35  1  0
 35 36  2  0
 13 37  2  0
 37  9  1  0
 36 16  1  0
 25 18  1  0
 36 26  1  0
 23 21  1  0
  1 38  1  0
  1 39  1  0
  1 40  1  0
  3 41  1  0
  3 42  1  0
  3 43  1  0
  4 44  1  0
  4 45  1  0
  4 46  1  0
  5 47  1  0
 10 48  1  0
 11 49  1  0
 12 50  1  0
 17 51  1  0
 17 52  1  0
 19 53  1  0
 19 54  1  0
 20 55  1  0
 20 56  1  0
 22 57  1  0
 22 58  1  0
 23 59  1  0
 23 60  1  0
 24 61  1  0
 24 62  1  0
 25 63  1  0
 25 64  1  0
 27 65  1  0
 29 66  1  0
 31 67  1  0
 31 68  1  0
 31 69  1  0
 34 70  1  0
 35 71  1  0
 37 72  1  0
M  END
$$$$

