
     RDKit          3D

 73 75  0  0  0  0  0  0  0  0999 V2000
  133.3720  118.5200  129.5720 C   0  0  0  0  0  0  0  0  0  0  0  0
  132.8680  117.1230  129.8180 C   0  0  0  0  0  0  0  0  0  0  0  0
  133.4970  116.0380  129.1900 C   0  0  0  0  0  0  0  0  0  0  0  0
  133.0340  114.7390  129.4180 C   0  0  0  0  0  0  0  0  0  0  0  0
  133.8460  113.3840  128.6080 S   0  0  0  0  0  6  0  0  0  0  0  0
  133.3250  112.1650  129.1900 O   0  0  0  0  0  0  0  0  0  0  0  0
  133.8060  113.6110  127.1780 O   0  0  0  0  0  0  0  0  0  0  0  0
  135.4760  113.5650  129.1050 N   0  0  0  0  0  0  0  0  0  0  0  0
  136.4610  112.8050  128.3030 C   0  0  0  0  0  0  0  0  0  0  0  0
  135.6610  113.3290  130.5560 C   0  0  0  0  0  0  0  0  0  0  0  0
  131.9600  114.5050  130.2750 C   0  0  0  0  0  0  0  0  0  0  0  0
  131.3320  115.5850  130.9030 C   0  0  0  0  0  0  0  0  0  0  0  0
  131.7760  116.8930  130.6780 C   0  0  0  0  0  0  0  0  0  0  0  0
  131.2280  118.0150  131.2440 O   0  0  0  0  0  0  0  0  0  0  0  0
  130.0330  117.8580  132.0090 C   0  0  0  0  0  0  0  0  0  0  0  0
  130.1070  118.7210  133.2500 C   0  0  0  0  0  0  0  0  0  0  0  0
  130.9830  119.8110  133.3250 C   0  0  0  0  0  0  0  0  0  0  0  0
  131.0170  120.6210  134.4610 C   0  0  0  0  0  0  0  0  0  0  0  0
  130.1630  120.3590  135.5320 C   0  0  0  0  0  0  0  0  0  0  0  0
  129.2640  119.2870  135.4740 C   0  0  0  0  0  0  0  0  0  0  0  0
  128.3300  118.9910  136.6260 C   0  0  0  0  0  0  0  0  0  0  0  0
  128.8600  117.9530  137.5420 N   0  0  0  0  0  0  0  0  0  0  0  0
  130.3170  117.7470  137.4190 C   0  0  0  0  0  0  0  0  0  0  0  0
  127.9070  116.5550  137.7130 S   0  0  0  0  0  6  0  0  0  0  0  0
  128.6450  115.5940  138.5060 O   0  0  0  0  0  0  0  0  0  0  0  0
  126.5720  116.9630  138.0960 O   0  0  0  0  0  0  0  0  0  0  0  0
  127.8190  115.9220  136.0510 C   0  0  0  0  0  0  0  0  0  0  0  0
  128.9570  115.3860  135.4540 C   0  0  0  0  0  0  0  0  0  0  0  0
  128.8780  114.8760  134.1550 C   0  0  0  0  0  0  0  0  0  0  0  0
  127.6660  114.8750  133.4340 C   0  0  0  0  0  0  0  0  0  0  0  0
  127.6200  114.3000  132.0060 C   0  0  0  0  0  0  0  0  0  0  0  0
  127.5580  115.4550  130.9830 C   0  0  0  0  0  0  0  0  0  0  0  0
  128.8860  113.4570  131.7460 C   0  0  0  0  0  0  0  0  0  0  0  0
  126.4000  113.3890  131.7390 C   0  0  0  0  0  0  0  0  0  0  0  0
  126.5290  115.3990  134.0770 C   0  0  0  0  0  0  0  0  0  0  0  0
  126.6000  115.9120  135.3770 C   0  0  0  0  0  0  0  0  0  0  0  0
  129.2430  118.4760  134.3270 C   0  0  0  0  0  0  0  0  0  0  0  0
  133.5523  119.0197  130.5352 H   0  0  0  0  0  0  0  0  0  0  0  0
  134.3108  118.4758  129.0005 H   0  0  0  0  0  0  0  0  0  0  0  0
  132.6212  119.0854  129.0005 H   0  0  0  0  0  0  0  0  0  0  0  0
  134.3524  116.2089  128.5198 H   0  0  0  0  0  0  0  0  0  0  0  0
  137.1499  112.2735  128.9760 H   0  0  0  0  0  0  0  0  0  0  0  0
  135.9339  112.0773  127.6685 H   0  0  0  0  0  0  0  0  0  0  0  0
  137.0312  113.4995  127.6685 H   0  0  0  0  0  0  0  0  0  0  0  0
  135.0802  114.0699  131.1250 H   0  0  0  0  0  0  0  0  0  0  0  0
  135.3132  112.3168  130.8101 H   0  0  0  0  0  0  0  0  0  0  0  0
  136.7269  113.4250  130.8101 H   0  0  0  0  0  0  0  0  0  0  0  0
  131.6090  113.4783  130.4560 H   0  0  0  0  0  0  0  0  0  0  0  0
  130.4829  115.4052  131.5788 H   0  0  0  0  0  0  0  0  0  0  0  0
  129.1674  118.1627  131.4024 H   0  0  0  0  0  0  0  0  0  0  0  0
  129.9239  116.8038  132.3034 H   0  0  0  0  0  0  0  0  0  0  0  0
  131.6514  120.0311  132.4795 H   0  0  0  0  0  0  0  0  0  0  0  0
  131.7182  121.4670  134.5117 H   0  0  0  0  0  0  0  0  0  0  0  0
  130.1958  120.9978  136.4269 H   0  0  0  0  0  0  0  0  0  0  0  0
  128.1725  119.9174  137.1979 H   0  0  0  0  0  0  0  0  0  0  0  0
  127.3899  118.6094  136.2010 H   0  0  0  0  0  0  0  0  0  0  0  0
  130.7643  117.6838  138.4220 H   0  0  0  0  0  0  0  0  0  0  0  0
  130.5103  116.8126  136.8717 H   0  0  0  0  0  0  0  0  0  0  0  0
  130.7618  118.5912  136.8717 H   0  0  0  0  0  0  0  0  0  0  0  0
  129.9113  115.3641  136.0007 H   0  0  0  0  0  0  0  0  0  0  0  0
  129.7832  114.4655  133.6837 H   0  0  0  0  0  0  0  0  0  0  0  0
  127.5064  116.4153  131.5169 H   0  0  0  0  0  0  0  0  0  0  0  0
  128.4585  115.4344  130.3517 H   0  0  0  0  0  0  0  0  0  0  0  0
  126.6648  115.3381  130.3517 H   0  0  0  0  0  0  0  0  0  0  0  0
  129.3323  113.1598  132.7065 H   0  0  0  0  0  0  0  0  0  0  0  0
  128.6163  112.5575  131.1731 H   0  0  0  0  0  0  0  0  0  0  0  0
  129.6119  114.0527  131.1731 H   0  0  0  0  0  0  0  0  0  0  0  0
  125.9671  113.0657  132.6972 H   0  0  0  0  0  0  0  0  0  0  0  0
  125.6450  113.9461  131.1649 H   0  0  0  0  0  0  0  0  0  0  0  0
  126.7198  112.5069  131.1649 H   0  0  0  0  0  0  0  0  0  0  0  0
  125.5651  115.4054  133.5470 H   0  0  0  0  0  0  0  0  0  0  0  0
  125.6963  116.3060  135.8650 H   0  0  0  0  0  0  0  0  0  0  0  0
  128.5367  117.6344  134.2728 H   0  0  0  0  0  0  0  0  0  0  0  0
  1  2  1  0
  2  3  2  0
  3  4  1  0
  4  5  1  0
  5  6  2  0
  5  7  2  0
  5  8  1  0
  8  9  1  0
  8 10  1  0
  4 11  2  0
 11 12  1  0
 12 13  2  0
 13 14  1  0
 14 15  1  0
 15 16  1  0
 16 17  2  0
 17 18  1  0
 18 19  2  0
 19 20  1  0
 20 21  1  0
 21 22  1  0
 22 23  1  0
 22 24  1  0
 24 25  2  0
 24 26  2  0
 24 27  1  0
 27 28  2  0
 28 29  1  0
 29 30  2  0
 30 31  1  0
 31 32  1  0
 31 33  1  0
 31 34  1  0
 30 35  1  0
 35 36  2  0
 20 37  2  0
 13  2  1  0
 37 16  1  0
 36 27  1  0
  1 38  1  0
  1 39  1  0
  1 40  1  0
  3 41  1  0
  9 42  1  0
  9 43  1  0
  9 44  1  0
 10 45  1  0
 10 46  1  0
 10 47  1  0
 11 48  1  0
 12 49  1  0
 15 50  1  0
 15 51  1  0
 17 52  1  0
 18 53  1  0
 19 54  1  0
 21 55  1  0
 21 56  1  0
 23 57  1  0
 23 58  1  0
 23 59  1  0
 28 60  1  0
 29 61  1  0
 32 62  1  0
 32 63  1  0
 32 64  1  0
 33 65  1  0
 33 66  1  0
 33 67  1  0
 34 68  1  0
 34 69  1  0
 34 70  1  0
 35 71  1  0
 36 72  1  0
 37 73  1  0
M  END
$$$$

     RDKit          3D

 73 75  0  0  0  0  0  0  0  0999 V2000
  133.5410  118.2700  129.4700 C   0  0  0  0  0  0  0  0  0  0  0  0
  133.0000  116.8870  129.7140 C   0  0  0  0  0  0  0  0  0  0  0  0
  133.7180  115.7710  129.2590 C   0  0  0  0  0  0  0  0  0  0  0  0
  133.2200  114.4850  129.4860 C   0  0  0  0  0  0  0  0  0  0  0  0
  134.1460  113.0890  128.8970 S   0  0  0  0  0  6  0  0  0  0  0  0
  133.6950  111.9330  129.6410 O   0  0  0  0  0  0  0  0  0  0  0  0
  134.1310  113.1040  127.4480 O   0  0  0  0  0  0  0  0  0  0  0  0
  135.7450  113.4590  129.3910 N   0  0  0  0  0  0  0  0  0  0  0  0
  136.8110  112.8380  128.5720 C   0  0  0  0  0  0  0  0  0  0  0  0
  135.9670  113.2230  130.8360 C   0  0  0  0  0  0  0  0  0  0  0  0
  132.0220  114.2950  130.1720 C   0  0  0  0  0  0  0  0  0  0  0  0
  131.3050  115.4050  130.6280 C   0  0  0  0  0  0  0  0  0  0  0  0
  131.7840  116.7010  130.4010 C   0  0  0  0  0  0  0  0  0  0  0  0
  131.1560  117.8500  130.8050 O   0  0  0  0  0  0  0  0  0  0  0  0
  130.1670  117.7440  131.8290 C   0  0  0  0  0  0  0  0  0  0  0  0
  130.4830  118.7170  132.9440 C   0  0  0  0  0  0  0  0  0  0  0  0
  130.9060  120.0230  132.6700 C   0  0  0  0  0  0  0  0  0  0  0  0
  131.1600  120.9220  133.7070 C   0  0  0  0  0  0  0  0  0  0  0  0
  130.9800  120.5300  135.0320 C   0  0  0  0  0  0  0  0  0  0  0  0
  130.5390  119.2350  135.3330 C   0  0  0  0  0  0  0  0  0  0  0  0
  130.3370  118.7940  136.7660 C   0  0  0  0  0  0  0  0  0  0  0  0
  128.9610  118.3070  137.0270 N   0  0  0  0  0  0  0  0  0  0  0  0
  128.1790  119.1980  137.9080 C   0  0  0  0  0  0  0  0  0  0  0  0
  128.8030  116.6370  137.3020 S   0  0  0  0  0  6  0  0  0  0  0  0
  130.1000  116.1120  137.6740 O   0  0  0  0  0  0  0  0  0  0  0  0
  127.6480  116.4260  138.1470 O   0  0  0  0  0  0  0  0  0  0  0  0
  128.4110  115.9980  135.6870 C   0  0  0  0  0  0  0  0  0  0  0  0
  129.3870  115.3290  134.9520 C   0  0  0  0  0  0  0  0  0  0  0  0
  129.0680  114.8160  133.6910 C   0  0  0  0  0  0  0  0  0  0  0  0
  127.7740  114.9450  133.1470 C   0  0  0  0  0  0  0  0  0  0  0  0
  127.4620  114.3620  131.7560 C   0  0  0  0  0  0  0  0  0  0  0  0
  128.4750  113.2440  131.4240 C   0  0  0  0  0  0  0  0  0  0  0  0
  126.0350  113.7750  131.7470 C   0  0  0  0  0  0  0  0  0  0  0  0
  127.5380  115.3990  130.6120 C   0  0  0  0  0  0  0  0  0  0  0  0
  126.8040  115.6020  133.9260 C   0  0  0  0  0  0  0  0  0  0  0  0
  127.1150  116.1200  135.1900 C   0  0  0  0  0  0  0  0  0  0  0  0
  130.2920  118.3370  134.2810 C   0  0  0  0  0  0  0  0  0  0  0  0
  133.7341  118.7635  130.4339 H   0  0  0  0  0  0  0  0  0  0  0  0
  134.4786  118.2015  128.8989 H   0  0  0  0  0  0  0  0  0  0  0  0
  132.8058  118.8558  128.8989 H   0  0  0  0  0  0  0  0  0  0  0  0
  134.6700  115.9077  128.7252 H   0  0  0  0  0  0  0  0  0  0  0  0
  137.5706  112.3955  129.2332 H   0  0  0  0  0  0  0  0  0  0  0  0
  136.3751  112.0525  127.9372 H   0  0  0  0  0  0  0  0  0  0  0  0
  137.2792  113.6047  127.9372 H   0  0  0  0  0  0  0  0  0  0  0  0
  135.3286  113.9017  131.4207 H   0  0  0  0  0  0  0  0  0  0  0  0
  135.7145  112.1806  131.0803 H   0  0  0  0  0  0  0  0  0  0  0  0
  137.0228  113.4114  131.0803 H   0  0  0  0  0  0  0  0  0  0  0  0
  131.6431  113.2784  130.3535 H   0  0  0  0  0  0  0  0  0  0  0  0
  130.3582  115.2594  131.1687 H   0  0  0  0  0  0  0  0  0  0  0  0
  129.1781  117.9783  131.4082 H   0  0  0  0  0  0  0  0  0  0  0  0
  130.1642  116.7193  132.2289 H   0  0  0  0  0  0  0  0  0  0  0  0
  131.0396  120.3441  131.6264 H   0  0  0  0  0  0  0  0  0  0  0  0
  131.5029  121.9418  133.4779 H   0  0  0  0  0  0  0  0  0  0  0  0
  131.1853  121.2411  135.8457 H   0  0  0  0  0  0  0  0  0  0  0  0
  131.0454  117.9821  136.9874 H   0  0  0  0  0  0  0  0  0  0  0  0
  130.5070  119.6695  137.4099 H   0  0  0  0  0  0  0  0  0  0  0  0
  128.3929  118.9543  138.9591 H   0  0  0  0  0  0  0  0  0  0  0  0
  128.4559  120.2441  137.7105 H   0  0  0  0  0  0  0  0  0  0  0  0
  127.1058  119.0592  137.7105 H   0  0  0  0  0  0  0  0  0  0  0  0
  130.4008  115.2052  135.3605 H   0  0  0  0  0  0  0  0  0  0  0  0
  129.8456  114.2993  133.1094 H   0  0  0  0  0  0  0  0  0  0  0  0
  128.8651  112.8135  132.3580 H   0  0  0  0  0  0  0  0  0  0  0  0
  127.9751  112.4582  130.8388 H   0  0  0  0  0  0  0  0  0  0  0  0
  129.3062  113.6643  130.8388 H   0  0  0  0  0  0  0  0  0  0  0  0
  125.6903  113.6332  132.7819 H   0  0  0  0  0  0  0  0  0  0  0  0
  125.3570  114.4673  131.2263 H   0  0  0  0  0  0  0  0  0  0  0  0
  126.0404  112.8060  131.2263 H   0  0  0  0  0  0  0  0  0  0  0  0
  127.6121  116.4104  131.0382 H   0  0  0  0  0  0  0  0  0  0  0  0
  128.4237  115.1966  129.9919 H   0  0  0  0  0  0  0  0  0  0  0  0
  126.6322  115.3279  129.9919 H   0  0  0  0  0  0  0  0  0  0  0  0
  125.7816  115.7111  133.5350 H   0  0  0  0  0  0  0  0  0  0  0  0
  126.3392  116.6210  135.7877 H   0  0  0  0  0  0  0  0  0  0  0  0
  129.9431  117.3191  134.5094 H   0  0  0  0  0  0  0  0  0  0  0  0
  1  2  1  0
  2  3  2  0
  3  4  1  0
  4  5  1  0
  5  6  2  0
  5  7  2  0
  5  8  1  0
  8  9  1  0
  8 10  1  0
  4 11  2  0
 11 12  1  0
 12 13  2  0
 13 14  1  0
 14 15  1  0
 15 16  1  0
 16 17  2  0
 17 18  1  0
 18 19  2  0
 19 20  1  0
 20 21  1  0
 21 22  1  0
 22 23  1  0
 22 24  1  0
 24 25  2  0
 24 26  2  0
 24 27  1  0
 27 28  2  0
 28 29  1  0
 29 30  2  0
 30 31  1  0
 31 32  1  0
 31 33  1  0
 31 34  1  0
 30 35  1  0
 35 36  2  0
 20 37  2  0
 13  2  1  0
 37 16  1  0
 36 27  1  0
  1 38  1  0
  1 39  1  0
  1 40  1  0
  3 41  1  0
  9 42  1  0
  9 43  1  0
  9 44  1  0
 10 45  1  0
 10 46  1  0
 10 47  1  0
 11 48  1  0
 12 49  1  0
 15 50  1  0
 15 51  1  0
 17 52  1  0
 18 53  1  0
 19 54  1  0
 21 55  1  0
 21 56  1  0
 23 57  1  0
 23 58  1  0
 23 59  1  0
 28 60  1  0
 29 61  1  0
 32 62  1  0
 32 63  1  0
 32 64  1  0
 33 65  1  0
 33 66  1  0
 33 67  1  0
 34 68  1  0
 34 69  1  0
 34 70  1  0
 35 71  1  0
 36 72  1  0
 37 73  1  0
M  END
$$$$

     RDKit          3D

 73 75  0  0  0  0  0  0  0  0999 V2000
  132.9390  120.0220  129.7010 C   0  0  0  0  0  0  0  0  0  0  0  0
  132.5160  118.6220  130.0580 C   0  0  0  0  0  0  0  0  0  0  0  0
  133.1550  117.5290  129.4540 C   0  0  0  0  0  0  0  0  0  0  0  0
  132.7680  116.2280  129.7850 C   0  0  0  0  0  0  0  0  0  0  0  0
  133.5900  114.8620  129.0030 S   0  0  0  0  0  6  0  0  0  0  0  0
  133.2960  114.9400  127.5880 O   0  0  0  0  0  0  0  0  0  0  0  0
  134.9540  114.8070  129.4860 O   0  0  0  0  0  0  0  0  0  0  0  0
  132.7680  113.5040  129.6500 N   0  0  0  0  0  0  0  0  0  0  0  0
  133.6440  112.4670  130.2410 C   0  0  0  0  0  0  0  0  0  0  0  0
  131.7990  112.9140  128.6980 C   0  0  0  0  0  0  0  0  0  0  0  0
  131.7600  115.9990  130.7210 C   0  0  0  0  0  0  0  0  0  0  0  0
  131.1230  117.0870  131.3260 C   0  0  0  0  0  0  0  0  0  0  0  0
  131.4910  118.3980  130.9990 C   0  0  0  0  0  0  0  0  0  0  0  0
  130.9280  119.5260  131.5330 O   0  0  0  0  0  0  0  0  0  0  0  0
  131.5300  120.0820  132.7030 C   0  0  0  0  0  0  0  0  0  0  0  0
  130.5410  120.0550  133.8470 C   0  0  0  0  0  0  0  0  0  0  0  0
  129.5340  121.0230  133.9580 C   0  0  0  0  0  0  0  0  0  0  0  0
  128.6050  120.9670  134.9980 C   0  0  0  0  0  0  0  0  0  0  0  0
  128.6620  119.9340  135.9330 C   0  0  0  0  0  0  0  0  0  0  0  0
  129.6470  118.9440  135.8320 C   0  0  0  0  0  0  0  0  0  0  0  0
  129.7220  117.8150  136.8370 C   0  0  0  0  0  0  0  0  0  0  0  0
  128.5000  117.7070  137.6700 N   0  0  0  0  0  0  0  0  0  0  0  0
  128.6190  118.3740  138.9810 C   0  0  0  0  0  0  0  0  0  0  0  0
  127.7220  116.1950  137.6550 S   0  0  0  0  0  6  0  0  0  0  0  0
  128.5480  115.2500  138.3780 O   0  0  0  0  0  0  0  0  0  0  0  0
  126.3360  116.3970  138.0190 O   0  0  0  0  0  0  0  0  0  0  0  0
  127.7640  115.7360  135.9350 C   0  0  0  0  0  0  0  0  0  0  0  0
  128.9570  115.2960  135.3660 C   0  0  0  0  0  0  0  0  0  0  0  0
  128.9800  114.9230  134.0190 C   0  0  0  0  0  0  0  0  0  0  0  0
  127.8180  114.9650  133.2210 C   0  0  0  0  0  0  0  0  0  0  0  0
  127.8850  114.5410  131.7410 C   0  0  0  0  0  0  0  0  0  0  0  0
  126.7630  113.5220  131.4430 C   0  0  0  0  0  0  0  0  0  0  0  0
  127.7020  115.7780  130.8380 C   0  0  0  0  0  0  0  0  0  0  0  0
  129.2220  113.8760  131.3420 C   0  0  0  0  0  0  0  0  0  0  0  0
  126.6240  115.3880  133.8340 C   0  0  0  0  0  0  0  0  0  0  0  0
  126.5920  115.7640  135.1820 C   0  0  0  0  0  0  0  0  0  0  0  0
  130.5800  119.0130  134.7840 C   0  0  0  0  0  0  0  0  0  0  0  0
  133.1131  120.5984  130.6216 H   0  0  0  0  0  0  0  0  0  0  0  0
  133.8662  119.9855  129.1103 H   0  0  0  0  0  0  0  0  0  0  0  0
  132.1467  120.5050  129.1103 H   0  0  0  0  0  0  0  0  0  0  0  0
  133.9587  117.6958  128.7217 H   0  0  0  0  0  0  0  0  0  0  0  0
  133.5938  112.5264  131.3382 H   0  0  0  0  0  0  0  0  0  0  0  0
  133.3084  111.4725  129.9119 H   0  0  0  0  0  0  0  0  0  0  0  0
  134.6806  112.6316  129.9119 H   0  0  0  0  0  0  0  0  0  0  0  0
  130.9897  112.4212  129.2567 H   0  0  0  0  0  0  0  0  0  0  0  0
  131.3767  113.7084  128.0651 H   0  0  0  0  0  0  0  0  0  0  0  0
  132.3109  112.1741  128.0651 H   0  0  0  0  0  0  0  0  0  0  0  0
  131.4683  114.9708  130.9813 H   0  0  0  0  0  0  0  0  0  0  0  0
  130.3268  116.9117  132.0644 H   0  0  0  0  0  0  0  0  0  0  0  0
  132.4179  119.4915  132.9732 H   0  0  0  0  0  0  0  0  0  0  0  0
  131.8255  121.1222  132.5014 H   0  0  0  0  0  0  0  0  0  0  0  0
  129.4751  121.8350  133.2182 H   0  0  0  0  0  0  0  0  0  0  0  0
  127.8261  121.7394  135.0803 H   0  0  0  0  0  0  0  0  0  0  0  0
  127.9301  119.8967  136.7533 H   0  0  0  0  0  0  0  0  0  0  0  0
  129.8619  116.8690  136.2935 H   0  0  0  0  0  0  0  0  0  0  0  0
  130.5654  118.0261  137.5109 H   0  0  0  0  0  0  0  0  0  0  0  0
  128.4867  117.6327  139.7829 H   0  0  0  0  0  0  0  0  0  0  0  0
  129.6137  118.8355  139.0687 H   0  0  0  0  0  0  0  0  0  0  0  0
  127.8453  119.1510  139.0687 H   0  0  0  0  0  0  0  0  0  0  0  0
  129.8736  115.2425  135.9718 H   0  0  0  0  0  0  0  0  0  0  0  0
  129.9272  114.5887  133.5707 H   0  0  0  0  0  0  0  0  0  0  0  0
  126.3486  113.1456  132.3899 H   0  0  0  0  0  0  0  0  0  0  0  0
  125.9669  114.0122  130.8635 H   0  0  0  0  0  0  0  0  0  0  0  0
  127.1746  112.6825  130.8635 H   0  0  0  0  0  0  0  0  0  0  0  0
  127.5696  116.6727  131.4641 H   0  0  0  0  0  0  0  0  0  0  0  0
  128.5914  115.9032  130.2029 H   0  0  0  0  0  0  0  0  0  0  0  0
  126.8145  115.6403  130.2029 H   0  0  0  0  0  0  0  0  0  0  0  0
  129.7789  113.5990  132.2493 H   0  0  0  0  0  0  0  0  0  0  0  0
  129.0193  112.9737  130.7464 H   0  0  0  0  0  0  0  0  0  0  0  0
  129.8193  114.5820  130.7464 H   0  0  0  0  0  0  0  0  0  0  0  0
  125.6975  115.4239  133.2422 H   0  0  0  0  0  0  0  0  0  0  0  0
  125.6456  116.0802  135.6449 H   0  0  0  0  0  0  0  0  0  0  0  0
  131.3541  118.2364  134.6972 H   0  0  0  0  0  0  0  0  0  0  0  0
  1  2  1  0
  2  3  2  0
  3  4  1  0
  4  5  1  0
  5  6  2  0
  5  7  2  0
  5  8  1  0
  8  9  1  0
  8 10  1  0
  4 11  2  0
 11 12  1  0
 12 13  2  0
 13 14  1  0
 14 15  1  0
 15 16  1  0
 16 17  2  0
 17 18  1  0
 18 19  2  0
 19 20  1  0
 20 21  1  0
 21 22  1  0
 22 23  1  0
 22 24  1  0
 24 25  2  0
 24 26  2  0
 24 27  1  0
 27 28  2  0
 28 29  1  0
 29 30  2  0
 30 31  1  0
 31 32  1  0
 31 33  1  0
 31 34  1  0
 30 35  1  0
 35 36  2  0
 20 37  2  0
 13  2  1  0
 37 16  1  0
 36 27  1  0
  1 38  1  0
  1 39  1  0
  1 40  1  0
  3 41  1  0
  9 42  1  0
  9 43  1  0
  9 44  1  0
 10 45  1  0
 10 46  1  0
 10 47  1  0
 11 48  1  0
 12 49  1  0
 15 50  1  0
 15 51  1  0
 17 52  1  0
 18 53  1  0
 19 54  1  0
 21 55  1  0
 21 56  1  0
 23 57  1  0
 23 58  1  0
 23 59  1  0
 28 60  1  0
 29 61  1  0
 32 62  1  0
 32 63  1  0
 32 64  1  0
 33 65  1  0
 33 66  1  0
 33 67  1  0
 34 68  1  0
 34 69  1  0
 34 70  1  0
 35 71  1  0
 36 72  1  0
 37 73  1  0
M  END
$$$$

     RDKit          3D

 73 75  0  0  0  0  0  0  0  0999 V2000
  130.1550  121.2490  134.2690 C   0  0  0  0  0  0  0  0  0  0  0  0
  129.9000  119.8250  134.6810 C   0  0  0  0  0  0  0  0  0  0  0  0
  129.5310  119.5400  136.0050 C   0  0  0  0  0  0  0  0  0  0  0  0
  129.2910  118.2200  136.3920 C   0  0  0  0  0  0  0  0  0  0  0  0
  128.8300  117.8880  138.0740 S   0  0  0  0  0  6  0  0  0  0  0  0
  129.9290  117.1700  138.6840 O   0  0  0  0  0  0  0  0  0  0  0  0
  128.3100  119.1070  138.6590 O   0  0  0  0  0  0  0  0  0  0  0  0
  127.5110  116.8060  137.8990 N   0  0  0  0  0  0  0  0  0  0  0  0
  126.4610  117.2500  136.9540 C   0  0  0  0  0  0  0  0  0  0  0  0
  126.9310  116.3970  139.1990 C   0  0  0  0  0  0  0  0  0  0  0  0
  129.3990  117.1770  135.4730 C   0  0  0  0  0  0  0  0  0  0  0  0
  129.7640  117.4570  134.1530 C   0  0  0  0  0  0  0  0  0  0  0  0
  130.0190  118.7730  133.7500 C   0  0  0  0  0  0  0  0  0  0  0  0
  130.3840  119.1490  132.4840 O   0  0  0  0  0  0  0  0  0  0  0  0
  130.5060  118.1270  131.4950 C   0  0  0  0  0  0  0  0  0  0  0  0
  131.8210  118.2800  130.7640 C   0  0  0  0  0  0  0  0  0  0  0  0
  132.5640  119.4650  130.8470 C   0  0  0  0  0  0  0  0  0  0  0  0
  133.7940  119.5810  130.1970 C   0  0  0  0  0  0  0  0  0  0  0  0
  134.3030  118.5080  129.4670 C   0  0  0  0  0  0  0  0  0  0  0  0
  133.5880  117.3070  129.3830 C   0  0  0  0  0  0  0  0  0  0  0  0
  134.1280  116.1330  128.5960 C   0  0  0  0  0  0  0  0  0  0  0  0
  134.2650  114.9060  129.4170 N   0  0  0  0  0  0  0  0  0  0  0  0
  135.6580  114.6160  129.8150 C   0  0  0  0  0  0  0  0  0  0  0  0
  133.3210  113.5780  128.9330 S   0  0  0  0  0  6  0  0  0  0  0  0
  133.0720  113.6910  127.5110 O   0  0  0  0  0  0  0  0  0  0  0  0
  133.9100  112.3790  129.4890 O   0  0  0  0  0  0  0  0  0  0  0  0
  131.7750  113.8560  129.7700 C   0  0  0  0  0  0  0  0  0  0  0  0
  130.5800  113.7900  129.0570 C   0  0  0  0  0  0  0  0  0  0  0  0
  129.3680  113.9940  129.7230 C   0  0  0  0  0  0  0  0  0  0  0  0
  129.3220  114.2500  131.1100 C   0  0  0  0  0  0  0  0  0  0  0  0
  127.9650  114.4640  131.8070 C   0  0  0  0  0  0  0  0  0  0  0  0
  126.9300  113.4640  131.2470 C   0  0  0  0  0  0  0  0  0  0  0  0
  128.1220  114.2390  133.3250 C   0  0  0  0  0  0  0  0  0  0  0  0
  127.3790  115.8820  131.6120 C   0  0  0  0  0  0  0  0  0  0  0  0
  130.5440  114.2820  131.8050 C   0  0  0  0  0  0  0  0  0  0  0  0
  131.7620  114.0800  131.1460 C   0  0  0  0  0  0  0  0  0  0  0  0
  132.3500  117.2030  130.0380 C   0  0  0  0  0  0  0  0  0  0  0  0
  130.2672  121.8757  135.1660 H   0  0  0  0  0  0  0  0  0  0  0  0
  131.0762  121.2980  133.6699 H   0  0  0  0  0  0  0  0  0  0  0  0
  129.3080  121.6146  133.6699 H   0  0  0  0  0  0  0  0  0  0  0  0
  129.4311  120.3553  136.7366 H   0  0  0  0  0  0  0  0  0  0  0  0
  125.5914  117.6177  137.5184 H   0  0  0  0  0  0  0  0  0  0  0  0
  126.8556  118.0583  136.3208 H   0  0  0  0  0  0  0  0  0  0  0  0
  126.1560  116.4038  136.3208 H   0  0  0  0  0  0  0  0  0  0  0  0
  127.5313  116.8203  140.0178 H   0  0  0  0  0  0  0  0  0  0  0  0
  125.8979  116.7675  139.2724 H   0  0  0  0  0  0  0  0  0  0  0  0
  126.9330  115.2995  139.2724 H   0  0  0  0  0  0  0  0  0  0  0  0
  129.1984  116.1413  135.7845 H   0  0  0  0  0  0  0  0  0  0  0  0
  129.8515  116.6368  133.4253 H   0  0  0  0  0  0  0  0  0  0  0  0
  130.4706  117.1411  131.9816 H   0  0  0  0  0  0  0  0  0  0  0  0
  129.6775  118.2142  130.7767 H   0  0  0  0  0  0  0  0  0  0  0  0
  132.1742  120.3124  131.4301 H   0  0  0  0  0  0  0  0  0  0  0  0
  134.3625  120.5206  130.2610 H   0  0  0  0  0  0  0  0  0  0  0  0
  135.2713  118.6053  128.9543 H   0  0  0  0  0  0  0  0  0  0  0  0
  133.4419  115.9233  127.7621 H   0  0  0  0  0  0  0  0  0  0  0  0
  135.1318  116.4068  128.2391 H   0  0  0  0  0  0  0  0  0  0  0  0
  135.7302  114.6010  130.9125 H   0  0  0  0  0  0  0  0  0  0  0  0
  135.9574  113.6363  129.4144 H   0  0  0  0  0  0  0  0  0  0  0  0
  136.3235  115.3949  129.4144 H   0  0  0  0  0  0  0  0  0  0  0  0
  130.5901  113.5788  127.9775 H   0  0  0  0  0  0  0  0  0  0  0  0
  128.4283  113.9541  129.1527 H   0  0  0  0  0  0  0  0  0  0  0  0
  126.4138  112.9652  132.0805 H   0  0  0  0  0  0  0  0  0  0  0  0
  126.1954  114.0031  130.6308 H   0  0  0  0  0  0  0  0  0  0  0  0
  127.4436  112.7113  130.6308 H   0  0  0  0  0  0  0  0  0  0  0  0
  127.5753  115.0225  133.8703 H   0  0  0  0  0  0  0  0  0  0  0  0
  127.7148  113.2531  133.5936 H   0  0  0  0  0  0  0  0  0  0  0  0
  129.1879  114.2810  133.5936 H   0  0  0  0  0  0  0  0  0  0  0  0
  127.1901  116.3390  132.5946 H   0  0  0  0  0  0  0  0  0  0  0  0
  128.0951  116.5008  131.0514 H   0  0  0  0  0  0  0  0  0  0  0  0
  126.4350  115.8147  131.0514 H   0  0  0  0  0  0  0  0  0  0  0  0
  130.5426  114.4696  132.8889 H   0  0  0  0  0  0  0  0  0  0  0  0
  132.7054  114.0979  131.7115 H   0  0  0  0  0  0  0  0  0  0  0  0
  131.7856  116.2606  129.9806 H   0  0  0  0  0  0  0  0  0  0  0  0
  1  2  1  0
  2  3  2  0
  3  4  1  0
  4  5  1  0
  5  6  2  0
  5  7  2  0
  5  8  1  0
  8  9  1  0
  8 10  1  0
  4 11  2  0
 11 12  1  0
 12 13  2  0
 13 14  1  0
 14 15  1  0
 15 16  1  0
 16 17  2  0
 17 18  1  0
 18 19  2  0
 19 20  1  0
 20 21  1  0
 21 22  1  0
 22 23  1  0
 22 24  1  0
 24 25  2  0
 24 26  2  0
 24 27  1  0
 27 28  2  0
 28 29  1  0
 29 30  2  0
 30 31  1  0
 31 32  1  0
 31 33  1  0
 31 34  1  0
 30 35  1  0
 35 36  2  0
 20 37  2  0
 13  2  1  0
 37 16  1  0
 36 27  1  0
  1 38  1  0
  1 39  1  0
  1 40  1  0
  3 41  1  0
  9 42  1  0
  9 43  1  0
  9 44  1  0
 10 45  1  0
 10 46  1  0
 10 47  1  0
 11 48  1  0
 12 49  1  0
 15 50  1  0
 15 51  1  0
 17 52  1  0
 18 53  1  0
 19 54  1  0
 21 55  1  0
 21 56  1  0
 23 57  1  0
 23 58  1  0
 23 59  1  0
 28 60  1  0
 29 61  1  0
 32 62  1  0
 32 63  1  0
 32 64  1  0
 33 65  1  0
 33 66  1  0
 33 67  1  0
 34 68  1  0
 34 69  1  0
 34 70  1  0
 35 71  1  0
 36 72  1  0
 37 73  1  0
M  END
$$$$

     RDKit          3D

 73 75  0  0  0  0  0  0  0  0999 V2000
  133.6310  119.2030  129.4850 C   0  0  0  0  0  0  0  0  0  0  0  0
  132.8690  117.9710  129.8920 C   0  0  0  0  0  0  0  0  0  0  0  0
  133.2160  116.7270  129.3440 C   0  0  0  0  0  0  0  0  0  0  0  0
  132.5130  115.5800  129.7200 C   0  0  0  0  0  0  0  0  0  0  0  0
  132.9710  114.0190  129.0090 S   0  0  0  0  0  6  0  0  0  0  0  0
  131.8650  113.1110  129.2250 O   0  0  0  0  0  0  0  0  0  0  0  0
  133.5010  114.2550  127.6820 O   0  0  0  0  0  0  0  0  0  0  0  0
  134.2790  113.5200  129.9970 N   0  0  0  0  0  0  0  0  0  0  0  0
  135.6180  113.6730  129.3840 C   0  0  0  0  0  0  0  0  0  0  0  0
  134.0900  112.1610  130.5530 C   0  0  0  0  0  0  0  0  0  0  0  0
  131.4750  115.6520  130.6480 C   0  0  0  0  0  0  0  0  0  0  0  0
  131.1270  116.8900  131.1970 C   0  0  0  0  0  0  0  0  0  0  0  0
  131.8150  118.0510  130.8240 C   0  0  0  0  0  0  0  0  0  0  0  0
  131.5490  119.3070  131.3020 O   0  0  0  0  0  0  0  0  0  0  0  0
  132.0670  119.6540  132.5870 C   0  0  0  0  0  0  0  0  0  0  0  0
  130.9380  119.7150  133.5920 C   0  0  0  0  0  0  0  0  0  0  0  0
  129.8490  120.5770  133.4080 C   0  0  0  0  0  0  0  0  0  0  0  0
  128.7960  120.5980  134.3240 C   0  0  0  0  0  0  0  0  0  0  0  0
  128.8120  119.7460  135.4280 C   0  0  0  0  0  0  0  0  0  0  0  0
  129.8800  118.8620  135.6230 C   0  0  0  0  0  0  0  0  0  0  0  0
  129.9110  117.9300  136.8150 C   0  0  0  0  0  0  0  0  0  0  0  0
  128.5920  117.8060  137.4810 N   0  0  0  0  0  0  0  0  0  0  0  0
  128.4500  118.6680  138.6720 C   0  0  0  0  0  0  0  0  0  0  0  0
  127.9670  116.2300  137.6060 S   0  0  0  0  0  6  0  0  0  0  0  0
  128.9410  115.4070  138.2920 O   0  0  0  0  0  0  0  0  0  0  0  0
  126.6040  116.3210  138.0840 O   0  0  0  0  0  0  0  0  0  0  0  0
  127.9060  115.6860  135.9110 C   0  0  0  0  0  0  0  0  0  0  0  0
  126.7130  115.7730  135.1990 C   0  0  0  0  0  0  0  0  0  0  0  0
  126.6750  115.3590  133.8640 C   0  0  0  0  0  0  0  0  0  0  0  0
  127.8250  114.8660  133.2120 C   0  0  0  0  0  0  0  0  0  0  0  0
  127.7430  114.4240  131.7390 C   0  0  0  0  0  0  0  0  0  0  0  0
  129.0220  113.6460  131.3590 C   0  0  0  0  0  0  0  0  0  0  0  0
  126.5140  113.5120  131.5390 C   0  0  0  0  0  0  0  0  0  0  0  0
  127.6100  115.5960  130.7400 C   0  0  0  0  0  0  0  0  0  0  0  0
  129.0210  114.8170  133.9510 C   0  0  0  0  0  0  0  0  0  0  0  0
  129.0660  115.2290  135.2890 C   0  0  0  0  0  0  0  0  0  0  0  0
  130.9360  118.8530  134.6980 C   0  0  0  0  0  0  0  0  0  0  0  0
  133.9642  119.7418  130.3843 H   0  0  0  0  0  0  0  0  0  0  0  0
  134.5068  118.9115  128.8866 H   0  0  0  0  0  0  0  0  0  0  0  0
  132.9791  119.8564  128.8866 H   0  0  0  0  0  0  0  0  0  0  0  0
  134.0404  116.6550  128.6193 H   0  0  0  0  0  0  0  0  0  0  0  0
  136.3762  113.7596  130.1762 H   0  0  0  0  0  0  0  0  0  0  0  0
  135.8383  112.7942  128.7602 H   0  0  0  0  0  0  0  0  0  0  0  0
  135.6343  114.5789  128.7602 H   0  0  0  0  0  0  0  0  0  0  0  0
  134.0968  112.2102  131.6519 H   0  0  0  0  0  0  0  0  0  0  0  0
  133.1268  111.7553  130.2101 H   0  0  0  0  0  0  0  0  0  0  0  0
  134.9059  111.5078  130.2101 H   0  0  0  0  0  0  0  0  0  0  0  0
  130.9339  114.7418  130.9460 H   0  0  0  0  0  0  0  0  0  0  0  0
  130.3067  116.9522  131.9273 H   0  0  0  0  0  0  0  0  0  0  0  0
  132.7979  118.8954  132.9037 H   0  0  0  0  0  0  0  0  0  0  0  0
  132.5568  120.6372  132.5291 H   0  0  0  0  0  0  0  0  0  0  0  0
  129.8236  121.2436  132.5334 H   0  0  0  0  0  0  0  0  0  0  0  0
  127.9522  121.2877  134.1749 H   0  0  0  0  0  0  0  0  0  0  0  0
  127.9815  119.7686  136.1490 H   0  0  0  0  0  0  0  0  0  0  0  0
  130.2277  116.9333  136.4739 H   0  0  0  0  0  0  0  0  0  0  0  0
  130.6140  118.3525  137.5480 H   0  0  0  0  0  0  0  0  0  0  0  0
  128.5507  118.0569  139.5810 H   0  0  0  0  0  0  0  0  0  0  0  0
  129.2330  119.4405  138.6610 H   0  0  0  0  0  0  0  0  0  0  0  0
  127.4606  119.1486  138.6610 H   0  0  0  0  0  0  0  0  0  0  0  0
  125.8064  116.1648  135.6833 H   0  0  0  0  0  0  0  0  0  0  0  0
  125.7269  115.4190  133.3094 H   0  0  0  0  0  0  0  0  0  0  0  0
  129.5436  113.3287  132.2740 H   0  0  0  0  0  0  0  0  0  0  0  0
  128.7499  112.7603  130.7662 H   0  0  0  0  0  0  0  0  0  0  0  0
  129.6834  114.2949  130.7662 H   0  0  0  0  0  0  0  0  0  0  0  0
  126.1141  113.2153  132.5198 H   0  0  0  0  0  0  0  0  0  0  0  0
  125.7408  114.0566  130.9773 H   0  0  0  0  0  0  0  0  0  0  0  0
  126.8112  112.6141  130.9773 H   0  0  0  0  0  0  0  0  0  0  0  0
  127.5029  116.5400  131.2944 H   0  0  0  0  0  0  0  0  0  0  0  0
  128.5087  115.6423  130.1073 H   0  0  0  0  0  0  0  0  0  0  0  0
  126.7238  115.4398  130.1073 H   0  0  0  0  0  0  0  0  0  0  0  0
  129.9383  114.4481  133.4689 H   0  0  0  0  0  0  0  0  0  0  0  0
  130.0135  115.1919  135.8466 H   0  0  0  0  0  0  0  0  0  0  0  0
  131.7761  118.1579  134.8433 H   0  0  0  0  0  0  0  0  0  0  0  0
  1  2  1  0
  2  3  2  0
  3  4  1  0
  4  5  1  0
  5  6  2  0
  5  7  2  0
  5  8  1  0
  8  9  1  0
  8 10  1  0
  4 11  2  0
 11 12  1  0
 12 13  2  0
 13 14  1  0
 14 15  1  0
 15 16  1  0
 16 17  2  0
 17 18  1  0
 18 19  2  0
 19 20  1  0
 20 21  1  0
 21 22  1  0
 22 23  1  0
 22 24  1  0
 24 25  2  0
 24 26  2  0
 24 27  1  0
 27 28  2  0
 28 29  1  0
 29 30  2  0
 30 31  1  0
 31 32  1  0
 31 33  1  0
 31 34  1  0
 30 35  1  0
 35 36  2  0
 20 37  2  0
 13  2  1  0
 37 16  1  0
 36 27  1  0
  1 38  1  0
  1 39  1  0
  1 40  1  0
  3 41  1  0
  9 42  1  0
  9 43  1  0
  9 44  1  0
 10 45  1  0
 10 46  1  0
 10 47  1  0
 11 48  1  0
 12 49  1  0
 15 50  1  0
 15 51  1  0
 17 52  1  0
 18 53  1  0
 19 54  1  0
 21 55  1  0
 21 56  1  0
 23 57  1  0
 23 58  1  0
 23 59  1  0
 28 60  1  0
 29 61  1  0
 32 62  1  0
 32 63  1  0
 32 64  1  0
 33 65  1  0
 33 66  1  0
 33 67  1  0
 34 68  1  0
 34 69  1  0
 34 70  1  0
 35 71  1  0
 36 72  1  0
 37 73  1  0
M  END
$$$$

     RDKit          3D

 73 75  0  0  0  0  0  0  0  0999 V2000
  133.0720  119.7300  129.9510 C   0  0  0  0  0  0  0  0  0  0  0  0
  132.6430  118.3020  130.1520 C   0  0  0  0  0  0  0  0  0  0  0  0
  133.2990  117.2750  129.4570 C   0  0  0  0  0  0  0  0  0  0  0  0
  132.9060  115.9480  129.6430 C   0  0  0  0  0  0  0  0  0  0  0  0
  133.7510  114.6680  128.7480 S   0  0  0  0  0  6  0  0  0  0  0  0
  133.4640  114.8690  127.3430 O   0  0  0  0  0  0  0  0  0  0  0  0
  135.1130  114.5880  129.2330 O   0  0  0  0  0  0  0  0  0  0  0  0
  132.9440  113.2470  129.2650 N   0  0  0  0  0  0  0  0  0  0  0  0
  133.7170  112.3940  130.1970 C   0  0  0  0  0  0  0  0  0  0  0  0
  132.3950  112.4580  128.1390 C   0  0  0  0  0  0  0  0  0  0  0  0
  131.8760  115.6260  130.5250 C   0  0  0  0  0  0  0  0  0  0  0  0
  131.2210  116.6470  131.2210 C   0  0  0  0  0  0  0  0  0  0  0  0
  131.5950  117.9840  131.0390 C   0  0  0  0  0  0  0  0  0  0  0  0
  131.0160  119.0520  131.6710 O   0  0  0  0  0  0  0  0  0  0  0  0
  129.7850  118.8310  132.3600 C   0  0  0  0  0  0  0  0  0  0  0  0
  129.8830  119.3840  133.7650 C   0  0  0  0  0  0  0  0  0  0  0  0
  130.7850  120.4070  134.0820 C   0  0  0  0  0  0  0  0  0  0  0  0
  130.8410  120.9340  135.3730 C   0  0  0  0  0  0  0  0  0  0  0  0
  129.9840  120.4520  136.3620 C   0  0  0  0  0  0  0  0  0  0  0  0
  129.0600  119.4420  136.0670 C   0  0  0  0  0  0  0  0  0  0  0  0
  128.1220  118.9100  137.1280 C   0  0  0  0  0  0  0  0  0  0  0  0
  128.6950  117.7670  137.8800 N   0  0  0  0  0  0  0  0  0  0  0  0
  130.1500  117.6060  137.6860 C   0  0  0  0  0  0  0  0  0  0  0  0
  127.7680  116.3430  137.8890 S   0  0  0  0  0  6  0  0  0  0  0  0
  128.4900  115.3330  138.6350 O   0  0  0  0  0  0  0  0  0  0  0  0
  126.4080  116.6920  138.2400 O   0  0  0  0  0  0  0  0  0  0  0  0
  127.7710  115.8490  136.1790 C   0  0  0  0  0  0  0  0  0  0  0  0
  128.9540  115.4170  135.5850 C   0  0  0  0  0  0  0  0  0  0  0  0
  128.9470  115.0160  134.2460 C   0  0  0  0  0  0  0  0  0  0  0  0
  127.7630  115.0200  133.4800 C   0  0  0  0  0  0  0  0  0  0  0  0
  127.7960  114.5660  132.0090 C   0  0  0  0  0  0  0  0  0  0  0  0
  127.7530  115.8020  131.0830 C   0  0  0  0  0  0  0  0  0  0  0  0
  129.0940  113.7740  131.7410 C   0  0  0  0  0  0  0  0  0  0  0  0
  126.6130  113.6560  131.6090 C   0  0  0  0  0  0  0  0  0  0  0  0
  126.5790  115.4350  134.1170 C   0  0  0  0  0  0  0  0  0  0  0  0
  126.5780  115.8400  135.4580 C   0  0  0  0  0  0  0  0  0  0  0  0
  129.0160  118.9170  134.7640 C   0  0  0  0  0  0  0  0  0  0  0  0
  133.2164  120.2107  130.9298 H   0  0  0  0  0  0  0  0  0  0  0  0
  134.0168  119.7533  129.3881 H   0  0  0  0  0  0  0  0  0  0  0  0
  132.2965  120.2701  129.3881 H   0  0  0  0  0  0  0  0  0  0  0  0
  134.1214  117.5146  128.7668 H   0  0  0  0  0  0  0  0  0  0  0  0
  133.4701  112.6664  131.2338 H   0  0  0  0  0  0  0  0  0  0  0  0
  133.4619  111.3379  130.0247 H   0  0  0  0  0  0  0  0  0  0  0  0
  134.7930  112.5441  130.0247 H   0  0  0  0  0  0  0  0  0  0  0  0
  131.8085  111.6151  128.5335 H   0  0  0  0  0  0  0  0  0  0  0  0
  131.7471  113.0993  127.5235 H   0  0  0  0  0  0  0  0  0  0  0  0
  133.2215  112.0733  127.5235 H   0  0  0  0  0  0  0  0  0  0  0  0
  131.5805  114.5768  130.6726 H   0  0  0  0  0  0  0  0  0  0  0  0
  130.4060  116.3979  131.9165 H   0  0  0  0  0  0  0  0  0  0  0  0
  128.9692  119.3374  131.8234 H   0  0  0  0  0  0  0  0  0  0  0  0
  129.5811  117.7511  132.4060 H   0  0  0  0  0  0  0  0  0  0  0  0
  131.4570  120.7997  133.3047 H   0  0  0  0  0  0  0  0  0  0  0  0
  131.5617  121.7303  135.6107 H   0  0  0  0  0  0  0  0  0  0  0  0
  130.0341  120.8675  137.3793 H   0  0  0  0  0  0  0  0  0  0  0  0
  127.8975  119.7204  137.8372 H   0  0  0  0  0  0  0  0  0  0  0  0
  127.2153  118.5509  136.6191 H   0  0  0  0  0  0  0  0  0  0  0  0
  130.6467  117.5510  138.6659 H   0  0  0  0  0  0  0  0  0  0  0  0
  130.3448  116.6808  137.1238 H   0  0  0  0  0  0  0  0  0  0  0  0
  130.5423  118.4662  137.1238 H   0  0  0  0  0  0  0  0  0  0  0  0
  129.8879  115.3915  136.1657 H   0  0  0  0  0  0  0  0  0  0  0  0
  129.8877  114.6895  133.7785 H   0  0  0  0  0  0  0  0  0  0  0  0
  127.7212  116.7165  131.6934 H   0  0  0  0  0  0  0  0  0  0  0  0
  128.6512  115.8160  130.4481 H   0  0  0  0  0  0  0  0  0  0  0  0
  126.8560  115.7535  130.4481 H   0  0  0  0  0  0  0  0  0  0  0  0
  129.5559  113.4922  132.6987 H   0  0  0  0  0  0  0  0  0  0  0  0
  128.8576  112.8661  131.1667 H   0  0  0  0  0  0  0  0  0  0  0  0
  129.7932  114.3995  131.1667 H   0  0  0  0  0  0  0  0  0  0  0  0
  126.1195  113.2764  132.5158 H   0  0  0  0  0  0  0  0  0  0  0  0
  125.8911  114.2338  131.0132 H   0  0  0  0  0  0  0  0  0  0  0  0
  126.9863  112.8100  131.0132 H   0  0  0  0  0  0  0  0  0  0  0  0
  125.6358  115.4415  133.5510 H   0  0  0  0  0  0  0  0  0  0  0  0
  125.6392  116.1498  135.9403 H   0  0  0  0  0  0  0  0  0  0  0  0
  128.2896  118.1267  134.5236 H   0  0  0  0  0  0  0  0  0  0  0  0
  1  2  1  0
  2  3  2  0
  3  4  1  0
  4  5  1  0
  5  6  2  0
  5  7  2  0
  5  8  1  0
  8  9  1  0
  8 10  1  0
  4 11  2  0
 11 12  1  0
 12 13  2  0
 13 14  1  0
 14 15  1  0
 15 16  1  0
 16 17  2  0
 17 18  1  0
 18 19  2  0
 19 20  1  0
 20 21  1  0
 21 22  1  0
 22 23  1  0
 22 24  1  0
 24 25  2  0
 24 26  2  0
 24 27  1  0
 27 28  2  0
 28 29  1  0
 29 30  2  0
 30 31  1  0
 31 32  1  0
 31 33  1  0
 31 34  1  0
 30 35  1  0
 35 36  2  0
 20 37  2  0
 13  2  1  0
 37 16  1  0
 36 27  1  0
  1 38  1  0
  1 39  1  0
  1 40  1  0
  3 41  1  0
  9 42  1  0
  9 43  1  0
  9 44  1  0
 10 45  1  0
 10 46  1  0
 10 47  1  0
 11 48  1  0
 12 49  1  0
 15 50  1  0
 15 51  1  0
 17 52  1  0
 18 53  1  0
 19 54  1  0
 21 55  1  0
 21 56  1  0
 23 57  1  0
 23 58  1  0
 23 59  1  0
 28 60  1  0
 29 61  1  0
 32 62  1  0
 32 63  1  0
 32 64  1  0
 33 65  1  0
 33 66  1  0
 33 67  1  0
 34 68  1  0
 34 69  1  0
 34 70  1  0
 35 71  1  0
 36 72  1  0
 37 73  1  0
M  END
$$$$

     RDKit          3D

 73 75  0  0  0  0  0  0  0  0999 V2000
  132.6260  119.3500  129.8010 C   0  0  0  0  0  0  0  0  0  0  0  0
  132.2030  117.9670  130.2170 C   0  0  0  0  0  0  0  0  0  0  0  0
  132.7700  116.8480  129.5890 C   0  0  0  0  0  0  0  0  0  0  0  0
  132.3820  115.5630  129.9740 C   0  0  0  0  0  0  0  0  0  0  0  0
  133.1130  114.1650  129.1600 S   0  0  0  0  0  6  0  0  0  0  0  0
  132.3000  113.0110  129.4800 O   0  0  0  0  0  0  0  0  0  0  0  0
  133.3970  114.5270  127.7870 O   0  0  0  0  0  0  0  0  0  0  0  0
  134.6180  114.0020  129.9630 N   0  0  0  0  0  0  0  0  0  0  0  0
  135.6440  114.9970  129.5750 C   0  0  0  0  0  0  0  0  0  0  0  0
  135.1530  112.6220  129.9040 C   0  0  0  0  0  0  0  0  0  0  0  0
  131.4440  115.3750  130.9880 C   0  0  0  0  0  0  0  0  0  0  0  0
  130.8770  116.4870  131.6170 C   0  0  0  0  0  0  0  0  0  0  0  0
  131.2470  117.7830  131.2370 C   0  0  0  0  0  0  0  0  0  0  0  0
  130.7500  118.9340  131.7900 O   0  0  0  0  0  0  0  0  0  0  0  0
  131.4970  119.5440  132.8430 C   0  0  0  0  0  0  0  0  0  0  0  0
  130.5630  119.9410  133.9650 C   0  0  0  0  0  0  0  0  0  0  0  0
  129.5290  120.8630  133.7570 C   0  0  0  0  0  0  0  0  0  0  0  0
  128.6520  121.1950  134.7900 C   0  0  0  0  0  0  0  0  0  0  0  0
  128.7890  120.5970  136.0430 C   0  0  0  0  0  0  0  0  0  0  0  0
  129.8020  119.6580  136.2710 C   0  0  0  0  0  0  0  0  0  0  0  0
  129.9630  118.9990  137.6230 C   0  0  0  0  0  0  0  0  0  0  0  0
  128.8410  118.0860  137.9540 N   0  0  0  0  0  0  0  0  0  0  0  0
  128.0180  118.5520  139.0870 C   0  0  0  0  0  0  0  0  0  0  0  0
  129.1960  116.4250  137.9040 S   0  0  0  0  0  6  0  0  0  0  0  0
  130.6350  116.2650  137.9350 O   0  0  0  0  0  0  0  0  0  0  0  0
  128.3550  115.7540  138.8730 O   0  0  0  0  0  0  0  0  0  0  0  0
  128.6390  115.9420  136.2830 C   0  0  0  0  0  0  0  0  0  0  0  0
  129.5010  115.2550  135.4320 C   0  0  0  0  0  0  0  0  0  0  0  0
  129.0520  114.8650  134.1660 C   0  0  0  0  0  0  0  0  0  0  0  0
  127.7380  115.1360  133.7330 C   0  0  0  0  0  0  0  0  0  0  0  0
  127.2810  114.6850  132.3330 C   0  0  0  0  0  0  0  0  0  0  0  0
  127.2250  115.9050  131.3880 C   0  0  0  0  0  0  0  0  0  0  0  0
  128.2790  113.6510  131.7700 C   0  0  0  0  0  0  0  0  0  0  0  0
  125.8820  114.0290  132.3120 C   0  0  0  0  0  0  0  0  0  0  0  0
  126.8840  115.8070  134.6280 C   0  0  0  0  0  0  0  0  0  0  0  0
  127.3260  116.2020  135.8960 C   0  0  0  0  0  0  0  0  0  0  0  0
  130.6820  119.3360  135.2250 C   0  0  0  0  0  0  0  0  0  0  0  0
  132.8129  119.9611  130.6963 H   0  0  0  0  0  0  0  0  0  0  0  0
  133.5460  119.2872  129.2013 H   0  0  0  0  0  0  0  0  0  0  0  0
  131.8283  119.8126  129.2013 H   0  0  0  0  0  0  0  0  0  0  0  0
  133.5190  116.9826  128.7947 H   0  0  0  0  0  0  0  0  0  0  0  0
  136.0931  115.4325  130.4798 H   0  0  0  0  0  0  0  0  0  0  0  0
  136.4258  114.5040  128.9785 H   0  0  0  0  0  0  0  0  0  0  0  0
  135.1752  115.7935  128.9785 H   0  0  0  0  0  0  0  0  0  0  0  0
  135.3004  112.2419  130.9257 H   0  0  0  0  0  0  0  0  0  0  0  0
  134.4406  111.9750  129.3713 H   0  0  0  0  0  0  0  0  0  0  0  0
  136.1154  112.6243  129.3713 H   0  0  0  0  0  0  0  0  0  0  0  0
  131.1521  114.3586  131.2910 H   0  0  0  0  0  0  0  0  0  0  0  0
  130.1349  116.3431  132.4161 H   0  0  0  0  0  0  0  0  0  0  0  0
  132.2431  118.8307  133.2231 H   0  0  0  0  0  0  0  0  0  0  0  0
  132.0061  120.4398  132.4578 H   0  0  0  0  0  0  0  0  0  0  0  0
  129.4073  121.3302  132.7686 H   0  0  0  0  0  0  0  0  0  0  0  0
  127.8515  121.9292  134.6163 H   0  0  0  0  0  0  0  0  0  0  0  0
  128.0977  120.8646  136.8557 H   0  0  0  0  0  0  0  0  0  0  0  0
  130.8987  118.4206  137.6231 H   0  0  0  0  0  0  0  0  0  0  0  0
  129.9765  119.7961  138.3809 H   0  0  0  0  0  0  0  0  0  0  0  0
  128.5064  118.2755  140.0331 H   0  0  0  0  0  0  0  0  0  0  0  0
  127.9097  119.6455  139.0362 H   0  0  0  0  0  0  0  0  0  0  0  0
  127.0246  118.0824  139.0362 H   0  0  0  0  0  0  0  0  0  0  0  0
  130.5268  115.0209  135.7528 H   0  0  0  0  0  0  0  0  0  0  0  0
  129.7406  114.3342  133.4921 H   0  0  0  0  0  0  0  0  0  0  0  0
  127.1826  116.8287  131.9838 H   0  0  0  0  0  0  0  0  0  0  0  0
  128.1235  115.9189  130.7535 H   0  0  0  0  0  0  0  0  0  0  0  0
  126.3291  115.8365  130.7535 H   0  0  0  0  0  0  0  0  0  0  0  0
  128.7788  113.1332  132.6019 H   0  0  0  0  0  0  0  0  0  0  0  0
  127.7385  112.9177  131.1534 H   0  0  0  0  0  0  0  0  0  0  0  0
  129.0310  114.1652  131.1534 H   0  0  0  0  0  0  0  0  0  0  0  0
  125.5373  113.8674  133.3440 H   0  0  0  0  0  0  0  0  0  0  0  0
  125.1751  114.6895  131.7885 H   0  0  0  0  0  0  0  0  0  0  0  0
  125.9377  113.0632  131.7885 H   0  0  0  0  0  0  0  0  0  0  0  0
  125.8492  116.0252  134.3253 H   0  0  0  0  0  0  0  0  0  0  0  0
  126.6391  116.7159  136.5846 H   0  0  0  0  0  0  0  0  0  0  0  0
  131.4782  118.5967  135.3967 H   0  0  0  0  0  0  0  0  0  0  0  0
  1  2  1  0
  2  3  2  0
  3  4  1  0
  4  5  1  0
  5  6  2  0
  5  7  2  0
  5  8  1  0
  8  9  1  0
  8 10  1  0
  4 11  2  0
 11 12  1  0
 12 13  2  0
 13 14  1  0
 14 15  1  0
 15 16  1  0
 16 17  2  0
 17 18  1  0
 18 19  2  0
 19 20  1  0
 20 21  1  0
 21 22  1  0
 22 23  1  0
 22 24  1  0
 24 25  2  0
 24 26  2  0
 24 27  1  0
 27 28  2  0
 28 29  1  0
 29 30  2  0
 30 31  1  0
 31 32  1  0
 31 33  1  0
 31 34  1  0
 30 35  1  0
 35 36  2  0
 20 37  2  0
 13  2  1  0
 37 16  1  0
 36 27  1  0
  1 38  1  0
  1 39  1  0
  1 40  1  0
  3 41  1  0
  9 42  1  0
  9 43  1  0
  9 44  1  0
 10 45  1  0
 10 46  1  0
 10 47  1  0
 11 48  1  0
 12 49  1  0
 15 50  1  0
 15 51  1  0
 17 52  1  0
 18 53  1  0
 19 54  1  0
 21 55  1  0
 21 56  1  0
 23 57  1  0
 23 58  1  0
 23 59  1  0
 28 60  1  0
 29 61  1  0
 32 62  1  0
 32 63  1  0
 32 64  1  0
 33 65  1  0
 33 66  1  0
 33 67  1  0
 34 68  1  0
 34 69  1  0
 34 70  1  0
 35 71  1  0
 36 72  1  0
 37 73  1  0
M  END
$$$$

     RDKit          3D

 73 75  0  0  0  0  0  0  0  0999 V2000
  129.4680  121.0900  134.2350 C   0  0  0  0  0  0  0  0  0  0  0  0
  129.4060  119.6750  134.7440 C   0  0  0  0  0  0  0  0  0  0  0  0
  129.0070  119.4300  136.0660 C   0  0  0  0  0  0  0  0  0  0  0  0
  128.9450  118.1180  136.5420 C   0  0  0  0  0  0  0  0  0  0  0  0
  128.4410  117.8360  138.2210 S   0  0  0  0  0  6  0  0  0  0  0  0
  129.3700  116.8840  138.7920 O   0  0  0  0  0  0  0  0  0  0  0  0
  128.1960  119.1170  138.8500 O   0  0  0  0  0  0  0  0  0  0  0  0
  126.9230  117.0630  138.0370 N   0  0  0  0  0  0  0  0  0  0  0  0
  126.8490  115.6920  138.5930 C   0  0  0  0  0  0  0  0  0  0  0  0
  126.4230  117.1090  136.6440 C   0  0  0  0  0  0  0  0  0  0  0  0
  129.2630  117.0430  135.7140 C   0  0  0  0  0  0  0  0  0  0  0  0
  129.6600  117.2840  134.3950 C   0  0  0  0  0  0  0  0  0  0  0  0
  129.7370  118.5930  133.9040 C   0  0  0  0  0  0  0  0  0  0  0  0
  130.1150  118.9320  132.6320 O   0  0  0  0  0  0  0  0  0  0  0  0
  130.3570  117.8730  131.7050 C   0  0  0  0  0  0  0  0  0  0  0  0
  131.6360  118.1450  130.9440 C   0  0  0  0  0  0  0  0  0  0  0  0
  132.2950  119.3770  131.0500 C   0  0  0  0  0  0  0  0  0  0  0  0
  133.4940  119.6030  130.3710 C   0  0  0  0  0  0  0  0  0  0  0  0
  134.0560  118.5960  129.5890 C   0  0  0  0  0  0  0  0  0  0  0  0
  133.4260  117.3490  129.4820 C   0  0  0  0  0  0  0  0  0  0  0  0
  134.0240  116.2450  128.6390 C   0  0  0  0  0  0  0  0  0  0  0  0
  134.2420  114.9930  129.4040 N   0  0  0  0  0  0  0  0  0  0  0  0
  135.6530  114.7690  129.7770 C   0  0  0  0  0  0  0  0  0  0  0  0
  133.3730  113.6340  128.8680 S   0  0  0  0  0  6  0  0  0  0  0  0
  133.1200  113.7840  127.4500 O   0  0  0  0  0  0  0  0  0  0  0  0
  134.0250  112.4490  129.3830 O   0  0  0  0  0  0  0  0  0  0  0  0
  131.8120  113.7970  129.7100 C   0  0  0  0  0  0  0  0  0  0  0  0
  131.7850  113.9550  131.0930 C   0  0  0  0  0  0  0  0  0  0  0  0
  130.5570  114.0980  131.7460 C   0  0  0  0  0  0  0  0  0  0  0  0
  129.3390  114.1020  131.0350 C   0  0  0  0  0  0  0  0  0  0  0  0
  128.0070  114.2670  131.7910 C   0  0  0  0  0  0  0  0  0  0  0  0
  128.2470  114.0930  133.3070 C   0  0  0  0  0  0  0  0  0  0  0  0
  127.4310  115.6740  131.5250 C   0  0  0  0  0  0  0  0  0  0  0  0
  126.9250  113.2430  131.3810 C   0  0  0  0  0  0  0  0  0  0  0  0
  129.4030  113.9690  129.6360 C   0  0  0  0  0  0  0  0  0  0  0  0
  130.6290  113.8240  128.9740 C   0  0  0  0  0  0  0  0  0  0  0  0
  132.2180  117.1340  130.1660 C   0  0  0  0  0  0  0  0  0  0  0  0
  129.4985  121.7851  135.0870 H   0  0  0  0  0  0  0  0  0  0  0  0
  130.3727  121.2202  133.6230 H   0  0  0  0  0  0  0  0  0  0  0  0
  128.5781  121.2988  133.6230 H   0  0  0  0  0  0  0  0  0  0  0  0
  128.7434  120.2691  136.7267 H   0  0  0  0  0  0  0  0  0  0  0  0
  126.8517  115.7413  139.6919 H   0  0  0  0  0  0  0  0  0  0  0  0
  125.9234  115.2067  138.2500 H   0  0  0  0  0  0  0  0  0  0  0  0
  127.7170  115.1099  138.2500 H   0  0  0  0  0  0  0  0  0  0  0  0
  125.3276  117.2098  136.6507 H   0  0  0  0  0  0  0  0  0  0  0  0
  126.8672  117.9701  136.1232 H   0  0  0  0  0  0  0  0  0  0  0  0
  126.7027  116.1813  136.1232 H   0  0  0  0  0  0  0  0  0  0  0  0
  129.2022  116.0129  136.0951 H   0  0  0  0  0  0  0  0  0  0  0  0
  129.9137  116.4388  133.7382 H   0  0  0  0  0  0  0  0  0  0  0  0
  130.4514  116.9230  132.2514 H   0  0  0  0  0  0  0  0  0  0  0  0
  129.5177  117.8094  130.9968 H   0  0  0  0  0  0  0  0  0  0  0  0
  131.8637  120.1736  131.6740 H   0  0  0  0  0  0  0  0  0  0  0  0
  133.9960  120.5783  130.4537 H   0  0  0  0  0  0  0  0  0  0  0  0
  134.9987  118.7808  129.0531 H   0  0  0  0  0  0  0  0  0  0  0  0
  133.3416  116.0320  127.8030 H   0  0  0  0  0  0  0  0  0  0  0  0
  135.0058  116.5927  128.2852 H   0  0  0  0  0  0  0  0  0  0  0  0
  135.7446  114.7544  130.8731 H   0  0  0  0  0  0  0  0  0  0  0  0
  135.9919  113.8058  129.3679 H   0  0  0  0  0  0  0  0  0  0  0  0
  136.2736  115.5799  129.3679 H   0  0  0  0  0  0  0  0  0  0  0  0
  132.7229  113.9672  131.6677 H   0  0  0  0  0  0  0  0  0  0  0  0
  130.5405  114.2100  132.8402 H   0  0  0  0  0  0  0  0  0  0  0  0
  127.4799  114.6491  133.8659 H   0  0  0  0  0  0  0  0  0  0  0  0
  128.1888  113.0258  133.5674 H   0  0  0  0  0  0  0  0  0  0  0  0
  129.2432  114.4801  133.5674 H   0  0  0  0  0  0  0  0  0  0  0  0
  127.2264  116.1737  132.4834 H   0  0  0  0  0  0  0  0  0  0  0  0
  128.1592  116.2658  130.9510 H   0  0  0  0  0  0  0  0  0  0  0  0
  126.4968  115.5853  130.9510 H   0  0  0  0  0  0  0  0  0  0  0  0
  126.4684  112.8108  132.2836 H   0  0  0  0  0  0  0  0  0  0  0  0
  126.1508  113.7469  130.7837 H   0  0  0  0  0  0  0  0  0  0  0  0
  127.3855  112.4422  130.7837 H   0  0  0  0  0  0  0  0  0  0  0  0
  128.4719  113.9791  129.0503 H   0  0  0  0  0  0  0  0  0  0  0  0
  130.6578  113.7319  127.8782 H   0  0  0  0  0  0  0  0  0  0  0  0
  131.7202  116.1560  130.0900 H   0  0  0  0  0  0  0  0  0  0  0  0
  1  2  1  0
  2  3  2  0
  3  4  1  0
  4  5  1  0
  5  6  2  0
  5  7  2  0
  5  8  1  0
  8  9  1  0
  8 10  1  0
  4 11  2  0
 11 12  1  0
 12 13  2  0
 13 14  1  0
 14 15  1  0
 15 16  1  0
 16 17  2  0
 17 18  1  0
 18 19  2  0
 19 20  1  0
 20 21  1  0
 21 22  1  0
 22 23  1  0
 22 24  1  0
 24 25  2  0
 24 26  2  0
 24 27  1  0
 27 28  2  0
 28 29  1  0
 29 30  2  0
 30 31  1  0
 31 32  1  0
 31 33  1  0
 31 34  1  0
 30 35  1  0
 35 36  2  0
 20 37  2  0
 13  2  1  0
 37 16  1  0
 36 27  1  0
  1 38  1  0
  1 39  1  0
  1 40  1  0
  3 41  1  0
  9 42  1  0
  9 43  1  0
  9 44  1  0
 10 45  1  0
 10 46  1  0
 10 47  1  0
 11 48  1  0
 12 49  1  0
 15 50  1  0
 15 51  1  0
 17 52  1  0
 18 53  1  0
 19 54  1  0
 21 55  1  0
 21 56  1  0
 23 57  1  0
 23 58  1  0
 23 59  1  0
 28 60  1  0
 29 61  1  0
 32 62  1  0
 32 63  1  0
 32 64  1  0
 33 65  1  0
 33 66  1  0
 33 67  1  0
 34 68  1  0
 34 69  1  0
 34 70  1  0
 35 71  1  0
 36 72  1  0
 37 73  1  0
M  END
$$$$

     RDKit          3D

 73 75  0  0  0  0  0  0  0  0999 V2000
  129.9920  117.2210  132.0220 C   0  0  0  0  0  0  0  0  0  0  0  0
  131.2060  117.4050  131.1530 C   0  0  0  0  0  0  0  0  0  0  0  0
  131.8230  116.2850  130.5750 C   0  0  0  0  0  0  0  0  0  0  0  0
  132.9490  116.4520  129.7660 C   0  0  0  0  0  0  0  0  0  0  0  0
  133.7130  115.0170  129.0510 S   0  0  0  0  0  6  0  0  0  0  0  0
  133.4120  115.0340  127.6350 O   0  0  0  0  0  0  0  0  0  0  0  0
  135.0780  114.9360  129.5280 O   0  0  0  0  0  0  0  0  0  0  0  0
  132.8460  113.7260  129.7710 N   0  0  0  0  0  0  0  0  0  0  0  0
  133.6830  112.6030  130.2490 C   0  0  0  0  0  0  0  0  0  0  0  0
  131.7270  113.2470  128.9280 C   0  0  0  0  0  0  0  0  0  0  0  0
  133.4620  117.7230  129.5100 C   0  0  0  0  0  0  0  0  0  0  0  0
  132.8490  118.8410  130.0830 C   0  0  0  0  0  0  0  0  0  0  0  0
  131.7250  118.6920  130.9050 C   0  0  0  0  0  0  0  0  0  0  0  0
  131.0560  119.7210  131.5120 O   0  0  0  0  0  0  0  0  0  0  0  0
  131.6250  120.2780  132.6980 C   0  0  0  0  0  0  0  0  0  0  0  0
  130.6090  120.2350  133.8180 C   0  0  0  0  0  0  0  0  0  0  0  0
  129.6170  121.2160  133.9370 C   0  0  0  0  0  0  0  0  0  0  0  0
  128.6630  121.1460  134.9530 C   0  0  0  0  0  0  0  0  0  0  0  0
  128.6820  120.0840  135.8570 C   0  0  0  0  0  0  0  0  0  0  0  0
  129.6520  119.0810  135.7490 C   0  0  0  0  0  0  0  0  0  0  0  0
  129.6850  117.9210  136.7200 C   0  0  0  0  0  0  0  0  0  0  0  0
  128.5030  117.8900  137.6160 N   0  0  0  0  0  0  0  0  0  0  0  0
  128.6960  118.6420  138.8720 C   0  0  0  0  0  0  0  0  0  0  0  0
  127.7050  116.3940  137.7410 S   0  0  0  0  0  6  0  0  0  0  0  0
  128.5230  115.5070  138.5430 O   0  0  0  0  0  0  0  0  0  0  0  0
  126.3240  116.6470  138.0920 O   0  0  0  0  0  0  0  0  0  0  0  0
  127.7320  115.7810  136.0700 C   0  0  0  0  0  0  0  0  0  0  0  0
  128.9310  115.3440  135.5120 C   0  0  0  0  0  0  0  0  0  0  0  0
  128.9420  114.8500  134.2050 C   0  0  0  0  0  0  0  0  0  0  0  0
  127.7620  114.7670  133.4360 C   0  0  0  0  0  0  0  0  0  0  0  0
  127.8170  114.2120  132.0000 C   0  0  0  0  0  0  0  0  0  0  0  0
  126.8460  113.0170  131.8690 C   0  0  0  0  0  0  0  0  0  0  0  0
  127.4060  115.3140  131.0020 C   0  0  0  0  0  0  0  0  0  0  0  0
  129.2160  113.7090  131.5770 C   0  0  0  0  0  0  0  0  0  0  0  0
  126.5640  115.1910  134.0390 C   0  0  0  0  0  0  0  0  0  0  0  0
  126.5440  115.6880  135.3470 C   0  0  0  0  0  0  0  0  0  0  0  0
  130.6090  119.1640  134.7240 C   0  0  0  0  0  0  0  0  0  0  0  0
  130.2885  117.2659  133.0804 H   0  0  0  0  0  0  0  0  0  0  0  0
  129.2653  118.0193  131.8106 H   0  0  0  0  0  0  0  0  0  0  0  0
  129.5345  116.2433  131.8106 H   0  0  0  0  0  0  0  0  0  0  0  0
  131.4207  115.2778  130.7587 H   0  0  0  0  0  0  0  0  0  0  0  0
  133.6902  112.5933  131.3489 H   0  0  0  0  0  0  0  0  0  0  0  0
  133.2703  111.6537  129.8767 H   0  0  0  0  0  0  0  0  0  0  0  0
  134.7106  112.7272  129.8767 H   0  0  0  0  0  0  0  0  0  0  0  0
  130.9071  112.8960  129.5718 H   0  0  0  0  0  0  0  0  0  0  0  0
  131.3679  114.0702  128.2929 H   0  0  0  0  0  0  0  0  0  0  0  0
  132.0748  112.4189  128.2929 H   0  0  0  0  0  0  0  0  0  0  0  0
  134.3425  117.8450  128.8620 H   0  0  0  0  0  0  0  0  0  0  0  0
  133.2525  119.8453  129.8868 H   0  0  0  0  0  0  0  0  0  0  0  0
  132.5125  119.6956  132.9865 H   0  0  0  0  0  0  0  0  0  0  0  0
  131.9149  121.3220  132.5081 H   0  0  0  0  0  0  0  0  0  0  0  0
  129.5894  122.0512  133.2216 H   0  0  0  0  0  0  0  0  0  0  0  0
  127.8954  121.9290  135.0410 H   0  0  0  0  0  0  0  0  0  0  0  0
  127.9307  120.0346  136.6589 H   0  0  0  0  0  0  0  0  0  0  0  0
  129.7164  116.9829  136.1465 H   0  0  0  0  0  0  0  0  0  0  0  0
  130.5774  118.0420  137.3516 H   0  0  0  0  0  0  0  0  0  0  0  0
  128.5246  117.9743  139.7292 H   0  0  0  0  0  0  0  0  0  0  0  0
  129.7235  119.0327  138.9112 H   0  0  0  0  0  0  0  0  0  0  0  0
  127.9836  119.4792  138.9112 H   0  0  0  0  0  0  0  0  0  0  0  0
  129.8623  115.3875  136.0958 H   0  0  0  0  0  0  0  0  0  0  0  0
  129.8938  114.5177  133.7649 H   0  0  0  0  0  0  0  0  0  0  0  0
  126.5602  112.6652  132.8713 H   0  0  0  0  0  0  0  0  0  0  0  0
  125.9463  113.3340  131.3212 H   0  0  0  0  0  0  0  0  0  0  0  0
  127.3404  112.2012  131.3212 H   0  0  0  0  0  0  0  0  0  0  0  0
  127.0738  116.2046  131.5555 H   0  0  0  0  0  0  0  0  0  0  0  0
  128.2671  115.5755  130.3694 H   0  0  0  0  0  0  0  0  0  0  0  0
  126.5840  114.9478  130.3694 H   0  0  0  0  0  0  0  0  0  0  0  0
  129.8150  113.4937  132.4742 H   0  0  0  0  0  0  0  0  0  0  0  0
  129.1105  112.7925  130.9779 H   0  0  0  0  0  0  0  0  0  0  0  0
  129.7182  114.4829  130.9779 H   0  0  0  0  0  0  0  0  0  0  0  0
  125.6240  115.1307  133.4710 H   0  0  0  0  0  0  0  0  0  0  0  0
  125.5942  116.0041  135.8029 H   0  0  0  0  0  0  0  0  0  0  0  0
  131.3709  118.3762  134.6303 H   0  0  0  0  0  0  0  0  0  0  0  0
  1  2  1  0
  2  3  2  0
  3  4  1  0
  4  5  1  0
  5  6  2  0
  5  7  2  0
  5  8  1  0
  8  9  1  0
  8 10  1  0
  4 11  2  0
 11 12  1  0
 12 13  2  0
 13 14  1  0
 14 15  1  0
 15 16  1  0
 16 17  2  0
 17 18  1  0
 18 19  2  0
 19 20  1  0
 20 21  1  0
 21 22  1  0
 22 23  1  0
 22 24  1  0
 24 25  2  0
 24 26  2  0
 24 27  1  0
 27 28  2  0
 28 29  1  0
 29 30  2  0
 30 31  1  0
 31 32  1  0
 31 33  1  0
 31 34  1  0
 30 35  1  0
 35 36  2  0
 20 37  2  0
 13  2  1  0
 37 16  1  0
 36 27  1  0
  1 38  1  0
  1 39  1  0
  1 40  1  0
  3 41  1  0
  9 42  1  0
  9 43  1  0
  9 44  1  0
 10 45  1  0
 10 46  1  0
 10 47  1  0
 11 48  1  0
 12 49  1  0
 15 50  1  0
 15 51  1  0
 17 52  1  0
 18 53  1  0
 19 54  1  0
 21 55  1  0
 21 56  1  0
 23 57  1  0
 23 58  1  0
 23 59  1  0
 28 60  1  0
 29 61  1  0
 32 62  1  0
 32 63  1  0
 32 64  1  0
 33 65  1  0
 33 66  1  0
 33 67  1  0
 34 68  1  0
 34 69  1  0
 34 70  1  0
 35 71  1  0
 36 72  1  0
 37 73  1  0
M  END
$$$$

