REMARK SMILES O=C(NCc1ccccc1)c1c(C(F)(F)F)ccc(CS(=O)(=O)c2ccccc2)c1F
REMARK SMILES IDX 11 1 30 2 31 3 19 4 18 5 17 6 12 7 2 8 1 9 3 10 4 12 5 13
REMARK SMILES IDX 6 14 10 15 7 16 9 17 8 18 13 19 14 20 15 21 16 22 20 23
REMARK SMILES IDX 21 24 22 25 23 26 24 27 25 28 29 29 26 30 28 31 27 32
REMARK H PARENT 3 11
REMARK Flexibility Score: inf
ROOT
ATOM      1  C   UNL     1       0.510  -1.762  -0.024  1.00  0.00     0.088 A 
ATOM      2  C   UNL     1       0.643  -0.806  -1.040  1.00  0.00     0.140 A 
ATOM      3  F   UNL     1      -0.035   0.352  -0.969  1.00  0.00    -0.206 F 
ATOM      4  C   UNL     1       1.486  -1.005  -2.139  1.00  0.00     0.004 A 
ATOM      5  C   UNL     1       2.198  -2.204  -2.225  1.00  0.00     0.008 A 
ATOM      6  C   UNL     1       2.065  -3.174  -1.229  1.00  0.00     0.014 A 
ATOM      7  C   UNL     1       1.219  -2.974  -0.119  1.00  0.00     0.071 A 
ENDROOT
BRANCH   1   8
ATOM      8  C   UNL     1      -0.327  -1.459   1.164  1.00  0.00     0.255 C 
ATOM      9  O   UNL     1       0.023  -1.856   2.267  1.00  0.00    -0.269 OA
ATOM     10  N   UNL     1      -1.470  -0.727   0.951  1.00  0.00    -0.348 N 
ATOM     11  H   UNL     1      -1.625  -0.279   0.057  1.00  0.00     0.164 HD
BRANCH  10  12
ATOM     12  C   UNL     1      -2.281  -0.291   2.063  1.00  0.00     0.152 C 
BRANCH  12  13
ATOM     13  C   UNL     1      -3.519   0.408   1.573  1.00  0.00    -0.029 A 
ATOM     14  C   UNL     1      -4.667  -0.327   1.244  1.00  0.00     0.005 A 
ATOM     15  C   UNL     1      -3.526   1.798   1.387  1.00  0.00     0.005 A 
ATOM     16  C   UNL     1      -5.805   0.318   0.759  1.00  0.00     0.000 A 
ATOM     17  C   UNL     1      -4.666   2.441   0.901  1.00  0.00     0.000 A 
ATOM     18  C   UNL     1      -5.805   1.701   0.589  1.00  0.00     0.000 A 
ENDBRANCH  12  13
ENDBRANCH  10  12
ENDBRANCH   1   8
BRANCH   7  19
ATOM     19  C   UNL     1       1.092  -4.069   0.916  1.00  0.00     0.417 C 
ATOM     20  F   UNL     1       1.563  -5.265   0.445  1.00  0.00    -0.166 F 
ATOM     21  F   UNL     1      -0.192  -4.329   1.280  1.00  0.00    -0.166 F 
ATOM     22  F   UNL     1       1.807  -3.834   2.046  1.00  0.00    -0.166 F 
ENDBRANCH   7  19
BRANCH   4  23
ATOM     23  C   UNL     1       1.641   0.071  -3.182  1.00  0.00     0.180 C 
BRANCH  23  24
ATOM     24  S   UNL     1       3.115   1.038  -2.895  1.00  0.00     0.182 S 
ATOM     25  O   UNL     1       3.063   2.191  -3.777  1.00  0.00    -0.223 OA
ATOM     26  O   UNL     1       4.267   0.153  -2.931  1.00  0.00    -0.223 OA
BRANCH  24  27
ATOM     27  C   UNL     1       2.955   1.654  -1.235  1.00  0.00     0.067 A 
ATOM     28  C   UNL     1       2.173   2.788  -0.997  1.00  0.00     0.020 A 
ATOM     29  C   UNL     1       3.622   1.010  -0.188  1.00  0.00     0.020 A 
ATOM     30  C   UNL     1       2.028   3.256   0.308  1.00  0.00     0.001 A 
ATOM     31  C   UNL     1       3.467   1.484   1.115  1.00  0.00     0.001 A 
ATOM     32  C   UNL     1       2.668   2.602   1.361  1.00  0.00     0.000 A 
ENDBRANCH  24  27
ENDBRANCH  23  24
ENDBRANCH   4  23
TORSDOF 7
