REMARK SMILES C=Cc1ccccc1NC(=O)c1c(C(F)(F)F)ccc(CS(=O)(=O)c2ccccc2)c1F
REMARK SMILES IDX 12 1 31 2 32 3 20 4 19 5 18 6 13 7 10 8 11 9 9 10 8 12 7 13
REMARK SMILES IDX 3 14 6 15 4 16 5 17 2 18 1 19 14 20 15 21 16 22 17 23 21 24
REMARK SMILES IDX 22 25 23 26 24 27 25 28 26 29 30 30 27 31 29 32 28 33
REMARK H PARENT 9 11
REMARK Flexibility Score: inf
ROOT
ATOM      1  C   UNL     1       1.127   0.929   0.716  1.00  0.00     0.088 A 
ATOM      2  C   UNL     1       1.375  -0.378   0.275  1.00  0.00     0.140 A 
ATOM      3  F   UNL     1       0.520  -0.978  -0.569  1.00  0.00    -0.206 F 
ATOM      4  C   UNL     1       2.497  -1.101   0.697  1.00  0.00     0.004 A 
ATOM      5  C   UNL     1       3.398  -0.485   1.569  1.00  0.00     0.008 A 
ATOM      6  C   UNL     1       3.173   0.823   2.005  1.00  0.00     0.014 A 
ATOM      7  C   UNL     1       2.042   1.551   1.585  1.00  0.00     0.071 A 
ENDROOT
BRANCH   1   8
ATOM      8  C   UNL     1      -0.132   1.611   0.313  1.00  0.00     0.259 C 
ATOM      9  O   UNL     1      -0.705   2.273   1.167  1.00  0.00    -0.269 OA
ATOM     10  N   UNL     1      -0.522   1.420  -0.995  1.00  0.00    -0.321 N 
ATOM     11  H   UNL     1       0.031   0.783  -1.557  1.00  0.00     0.170 HD
BRANCH  10  12
ATOM     12  C   UNL     1      -1.651   1.962  -1.659  1.00  0.00     0.048 A 
ATOM     13  C   UNL     1      -2.527   2.864  -1.043  1.00  0.00     0.027 A 
ATOM     14  C   UNL     1      -1.904   1.577  -2.996  1.00  0.00    -0.003 A 
ATOM     15  C   UNL     1      -3.634   3.372  -1.731  1.00  0.00     0.002 A 
ATOM     16  C   UNL     1      -3.019   2.093  -3.675  1.00  0.00     0.010 A 
ATOM     17  C   UNL     1      -3.881   2.987  -3.044  1.00  0.00     0.001 A 
BRANCH  14  18
ATOM     18  C   UNL     1      -1.048   0.641  -3.741  1.00  0.00     0.002 C 
ATOM     19  C   UNL     1       0.121   1.017  -4.274  1.00  0.00     0.009 C 
ENDBRANCH  14  18
ENDBRANCH  10  12
ENDBRANCH   1   8
BRANCH   7  20
ATOM     20  C   UNL     1       1.858   2.972   2.069  1.00  0.00     0.417 C 
ATOM     21  F   UNL     1       1.478   3.836   1.090  1.00  0.00    -0.166 F 
ATOM     22  F   UNL     1       0.975   3.088   3.094  1.00  0.00    -0.166 F 
ATOM     23  F   UNL     1       3.028   3.495   2.551  1.00  0.00    -0.166 F 
ENDBRANCH   7  20
BRANCH   4  24
ATOM     24  C   UNL     1       2.697  -2.523   0.245  1.00  0.00     0.180 C 
BRANCH  24  25
ATOM     25  S   UNL     1       2.151  -3.679   1.494  1.00  0.00     0.182 S 
ATOM     26  O   UNL     1       2.925  -3.456   2.703  1.00  0.00    -0.223 OA
ATOM     27  O   UNL     1       2.122  -4.998   0.888  1.00  0.00    -0.223 OA
BRANCH  25  28
ATOM     28  C   UNL     1       0.465  -3.232   1.837  1.00  0.00     0.067 A 
ATOM     29  C   UNL     1       0.167  -2.456   2.962  1.00  0.00     0.020 A 
ATOM     30  C   UNL     1      -0.547  -3.669   0.979  1.00  0.00     0.020 A 
ATOM     31  C   UNL     1      -1.153  -2.080   3.202  1.00  0.00     0.001 A 
ATOM     32  C   UNL     1      -1.866  -3.290   1.229  1.00  0.00     0.001 A 
ATOM     33  C   UNL     1      -2.166  -2.492   2.334  1.00  0.00     0.000 A 
ENDBRANCH  25  28
ENDBRANCH  24  25
ENDBRANCH   4  24
TORSDOF 7
