REMARK SMILES O=C(Nc1cccc(-c2ccccc2)c1)c1c(C(F)(F)F)ccc(CS(=O)(=O)c2ccccc2)c1F
REMARK SMILES IDX 16 1 35 2 36 3 24 4 23 5 22 6 17 7 2 8 1 9 3 10 4 12 5 13
REMARK SMILES IDX 15 14 6 15 8 16 7 17 9 18 10 19 14 20 11 21 13 22 12 23
REMARK SMILES IDX 18 24 19 25 20 26 21 27 25 28 26 29 27 30 28 31 29 32 30 33
REMARK SMILES IDX 34 34 31 35 33 36 32 37
REMARK H PARENT 3 11
REMARK Flexibility Score: inf
ROOT
ATOM      1  C   UNL     1       0.761   2.916   0.606  1.00  0.00     0.088 A 
ATOM      2  C   UNL     1       1.628   1.909   0.168  1.00  0.00     0.140 A 
ATOM      3  F   UNL     1       1.207   1.000  -0.725  1.00  0.00    -0.206 F 
ATOM      4  C   UNL     1       2.942   1.812   0.639  1.00  0.00     0.004 A 
ATOM      5  C   UNL     1       3.397   2.764   1.556  1.00  0.00     0.008 A 
ATOM      6  C   UNL     1       2.546   3.784   1.990  1.00  0.00     0.014 A 
ATOM      7  C   UNL     1       1.215   3.872   1.531  1.00  0.00     0.071 A 
ENDROOT
BRANCH   1   8
ATOM      8  C   UNL     1      -0.614   2.974   0.055  1.00  0.00     0.259 C 
ATOM      9  O   UNL     1      -1.035   4.072  -0.283  1.00  0.00    -0.269 OA
ATOM     10  N   UNL     1      -1.276   1.764  -0.006  1.00  0.00    -0.322 N 
ATOM     11  H   UNL     1      -0.760   0.937   0.278  1.00  0.00     0.170 HD
BRANCH  10  12
ATOM     12  C   UNL     1      -2.591   1.527  -0.459  1.00  0.00     0.042 A 
ATOM     13  C   UNL     1      -3.461   2.529  -0.886  1.00  0.00     0.026 A 
ATOM     14  C   UNL     1      -3.032   0.195  -0.471  1.00  0.00     0.034 A 
ATOM     15  C   UNL     1      -4.748   2.206  -1.320  1.00  0.00     0.003 A 
ATOM     16  C   UNL     1      -4.325  -0.152  -0.905  1.00  0.00    -0.016 A 
ATOM     17  C   UNL     1      -5.175   0.878  -1.331  1.00  0.00     0.009 A 
BRANCH  16  18
ATOM     18  C   UNL     1      -4.770  -1.555  -0.913  1.00  0.00    -0.018 A 
ATOM     19  C   UNL     1      -5.281  -2.146  -2.081  1.00  0.00     0.009 A 
ATOM     20  C   UNL     1      -4.697  -2.345   0.246  1.00  0.00     0.009 A 
ATOM     21  C   UNL     1      -5.703  -3.478  -2.091  1.00  0.00     0.001 A 
ATOM     22  C   UNL     1      -5.119  -3.678   0.239  1.00  0.00     0.001 A 
ATOM     23  C   UNL     1      -5.621  -4.243  -0.930  1.00  0.00     0.000 A 
ENDBRANCH  16  18
ENDBRANCH  10  12
ENDBRANCH   1   8
BRANCH   7  24
ATOM     24  C   UNL     1       0.319   4.970   2.055  1.00  0.00     0.417 C 
ATOM     25  F   UNL     1       0.171   6.007   1.190  1.00  0.00    -0.166 F 
ATOM     26  F   UNL     1      -0.923   4.542   2.404  1.00  0.00    -0.166 F 
ATOM     27  F   UNL     1       0.823   5.534   3.197  1.00  0.00    -0.166 F 
ENDBRANCH   7  24
BRANCH   4  28
ATOM     28  C   UNL     1       3.816   0.672   0.192  1.00  0.00     0.180 C 
BRANCH  28  29
ATOM     29  S   UNL     1       3.528  -0.719   1.285  1.00  0.00     0.182 S 
ATOM     30  O   UNL     1       2.133  -1.113   1.212  1.00  0.00    -0.223 OA
ATOM     31  O   UNL     1       4.149  -0.434   2.566  1.00  0.00    -0.223 OA
BRANCH  29  32
ATOM     32  C   UNL     1       4.477  -2.012   0.515  1.00  0.00     0.067 A 
ATOM     33  C   UNL     1       3.889  -2.791  -0.485  1.00  0.00     0.020 A 
ATOM     34  C   UNL     1       5.788  -2.254   0.935  1.00  0.00     0.020 A 
ATOM     35  C   UNL     1       4.633  -3.805  -1.088  1.00  0.00     0.001 A 
ATOM     36  C   UNL     1       6.524  -3.270   0.327  1.00  0.00     0.001 A 
ATOM     37  C   UNL     1       5.948  -4.041  -0.684  1.00  0.00     0.000 A 
ENDBRANCH  29  32
ENDBRANCH  28  29
ENDBRANCH   4  28
TORSDOF 7
