REMARK SMILES Cc1ccc(NC(=O)c2c(C(F)(F)F)ccc(CS(=O)(=O)c3ccccc3)c2F)c(-c2ccccc2)c1
REMARK SMILES IDX 9 1 28 2 29 3 17 4 16 5 15 6 10 7 7 8 6 9 8 11 5 12 1 13
REMARK SMILES IDX 2 14 3 15 37 16 4 17 30 18 31 19 32 20 36 21 33 22 35 23
REMARK SMILES IDX 34 24 11 25 12 26 13 27 14 28 18 29 19 30 20 31 21 32 22 33
REMARK SMILES IDX 23 34 27 35 24 36 26 37 25 38
REMARK H PARENT 6 10
REMARK Flexibility Score: inf
ROOT
ATOM      1  C   UNL     1       1.237  -1.487   1.378  1.00  0.00     0.088 A 
ATOM      2  C   UNL     1       1.379  -0.102   1.547  1.00  0.00     0.140 A 
ATOM      3  F   UNL     1       0.603   0.745   0.854  1.00  0.00    -0.206 F 
ATOM      4  C   UNL     1       2.325   0.454   2.416  1.00  0.00     0.004 A 
ATOM      5  C   UNL     1       3.144  -0.407   3.148  1.00  0.00     0.008 A 
ATOM      6  C   UNL     1       3.003  -1.790   3.013  1.00  0.00     0.014 A 
ATOM      7  C   UNL     1       2.047  -2.352   2.140  1.00  0.00     0.071 A 
ENDROOT
BRANCH   1   8
ATOM      8  C   UNL     1       0.281  -2.017   0.360  1.00  0.00     0.259 C 
ATOM      9  N   UNL     1      -0.832  -1.241   0.108  1.00  0.00    -0.321 N 
ATOM     10  H   UNL     1      -0.867  -0.329   0.551  1.00  0.00     0.170 HD
ATOM     11  O   UNL     1       0.564  -3.075  -0.186  1.00  0.00    -0.269 OA
BRANCH   9  12
ATOM     12  C   UNL     1      -1.902  -1.506  -0.785  1.00  0.00     0.049 A 
ATOM     13  C   UNL     1      -5.251  -2.232  -3.429  1.00  0.00     0.044 C 
ATOM     14  C   UNL     1      -4.078  -1.971  -2.533  1.00  0.00    -0.050 A 
ATOM     15  C   UNL     1      -3.130  -2.967  -2.295  1.00  0.00     0.005 A 
ATOM     16  C   UNL     1      -3.945  -0.744  -1.875  1.00  0.00     0.014 A 
ATOM     17  C   UNL     1      -2.052  -2.735  -1.434  1.00  0.00     0.027 A 
ATOM     18  C   UNL     1      -2.866  -0.490  -1.005  1.00  0.00     0.006 A 
BRANCH  18  19
ATOM     19  C   UNL     1      -2.775   0.835  -0.370  1.00  0.00    -0.016 A 
ATOM     20  C   UNL     1      -3.477   1.113   0.812  1.00  0.00     0.009 A 
ATOM     21  C   UNL     1      -1.967   1.839  -0.925  1.00  0.00     0.009 A 
ATOM     22  C   UNL     1      -3.370   2.363   1.425  1.00  0.00     0.001 A 
ATOM     23  C   UNL     1      -1.860   3.089  -0.312  1.00  0.00     0.001 A 
ATOM     24  C   UNL     1      -2.561   3.349   0.864  1.00  0.00     0.000 A 
ENDBRANCH  18  19
ENDBRANCH   9  12
ENDBRANCH   1   8
BRANCH   7  25
ATOM     25  C   UNL     1       1.922  -3.859   2.073  1.00  0.00     0.417 C 
ATOM     26  F   UNL     1       2.534  -4.462   3.140  1.00  0.00    -0.166 F 
ATOM     27  F   UNL     1       0.638  -4.304   2.126  1.00  0.00    -0.166 F 
ATOM     28  F   UNL     1       2.513  -4.408   0.981  1.00  0.00    -0.166 F 
ENDBRANCH   7  25
BRANCH   4  29
ATOM     29  C   UNL     1       2.465   1.949   2.528  1.00  0.00     0.180 C 
BRANCH  29  30
ATOM     30  S   UNL     1       3.755   2.559   1.454  1.00  0.00     0.182 S 
ATOM     31  O   UNL     1       3.698   4.011   1.482  1.00  0.00    -0.223 OA
ATOM     32  O   UNL     1       4.995   1.879   1.781  1.00  0.00    -0.223 OA
BRANCH  30  33
ATOM     33  C   UNL     1       3.276   2.060  -0.184  1.00  0.00     0.067 A 
ATOM     34  C   UNL     1       2.339   2.825  -0.886  1.00  0.00     0.020 A 
ATOM     35  C   UNL     1       3.846   0.920  -0.758  1.00  0.00     0.020 A 
ATOM     36  C   UNL     1       1.941   2.418  -2.159  1.00  0.00     0.001 A 
ATOM     37  C   UNL     1       3.438   0.518  -2.029  1.00  0.00     0.001 A 
ATOM     38  C   UNL     1       2.484   1.262  -2.725  1.00  0.00     0.000 A 
ENDBRANCH  30  33
ENDBRANCH  29  30
ENDBRANCH   4  29
TORSDOF 7
