REMARK SMILES CCCCn1c(CCC(=O)N(C)Cc2cc(N)c(Cl)cc2F)nc2cc(S(=O)(=O)N3CCOCC3)ccc21
REMARK SMILES IDX 8 1 9 2 10 3 11 4 12 5 13 6 14 7 21 8 15 9 22 10 20 11 16 12
REMARK SMILES IDX 18 13 19 14 17 15 7 18 6 19 23 20 5 21 24 22 38 23 25 24
REMARK SMILES IDX 37 25 26 26 36 27 4 28 3 29 2 30 1 31 27 32 28 33 29 34
REMARK SMILES IDX 30 35 31 36 35 37 32 38 34 39 33 40
REMARK H PARENT 17 16 17 17
REMARK Flexibility Score: inf
ROOT
ATOM      1  C   UNL     1       1.917  -1.052   0.754  1.00  0.00     0.108 C 
ENDROOT
BRANCH   1   2
ATOM      2  C   UNL     1       3.333  -1.153   1.288  1.00  0.00     0.223 C 
ATOM      3  O   UNL     1       3.794  -0.284   2.031  1.00  0.00    -0.275 OA
BRANCH   2   4
ATOM      4  N   UNL     1       4.074  -2.266   0.901  1.00  0.00    -0.341 N 
ATOM      5  C   UNL     1       3.622  -3.237  -0.088  1.00  0.00     0.147 C 
BRANCH   4   6
ATOM      6  C   UNL     1       5.479  -2.339   1.299  1.00  0.00     0.157 C 
BRANCH   6   7
ATOM      7  C   UNL     1       6.408  -1.782   0.251  1.00  0.00     0.009 A 
ATOM      8  C   UNL     1       7.058  -2.629  -0.647  1.00  0.00     0.129 A 
ATOM      9  C   UNL     1       6.632  -0.399   0.152  1.00  0.00     0.035 A 
ATOM     10  F   UNL     1       6.854  -3.953  -0.584  1.00  0.00    -0.207 F 
ATOM     11  C   UNL     1       7.926  -2.134  -1.613  1.00  0.00     0.062 A 
ATOM     12  C   UNL     1       7.463   0.133  -0.843  1.00  0.00     0.051 A 
ATOM     13  C   UNL     1       8.140  -0.759  -1.695  1.00  0.00     0.066 A 
ATOM     14  Cl  UNL     1       9.236  -0.170  -2.897  1.00  0.00    -0.082 Cl
BRANCH  12  15
ATOM     15  N   UNL     1       7.756   1.508  -0.820  1.00  0.00    -0.398 N 
ATOM     16  H   UNL     1       8.142   1.845  -1.700  1.00  0.00     0.156 HD
ATOM     17  H   UNL     1       7.005   2.091  -0.465  1.00  0.00     0.156 HD
ENDBRANCH  12  15
ENDBRANCH   6   7
ENDBRANCH   4   6
ENDBRANCH   2   4
ENDBRANCH   1   2
BRANCH   1  18
ATOM     18  C   UNL     1       1.241   0.238   1.215  1.00  0.00     0.085 C 
BRANCH  18  19
ATOM     19  C   UNL     1      -0.146   0.374   0.670  1.00  0.00     0.110 A 
ATOM     20  N   UNL     1      -0.793  -0.536  -0.031  1.00  0.00    -0.233 NA
ATOM     21  N   UNL     1      -0.926   1.500   0.841  1.00  0.00    -0.328 N 
ATOM     22  C   UNL     1      -2.014   0.011  -0.328  1.00  0.00     0.090 A 
ATOM     23  C   UNL     1      -2.132   1.288   0.211  1.00  0.00     0.068 A 
ATOM     24  C   UNL     1      -3.073  -0.541  -1.058  1.00  0.00     0.052 A 
ATOM     25  C   UNL     1      -3.282   2.074   0.055  1.00  0.00     0.030 A 
ATOM     26  C   UNL     1      -4.233   0.228  -1.209  1.00  0.00     0.085 A 
ATOM     27  C   UNL     1      -4.338   1.516  -0.671  1.00  0.00     0.024 A 
BRANCH  21  28
ATOM     28  C   UNL     1      -0.553   2.703   1.567  1.00  0.00     0.124 C 
BRANCH  28  29
ATOM     29  C   UNL     1       0.074   3.753   0.650  1.00  0.00     0.022 C 
BRANCH  29  30
ATOM     30  C   UNL     1       0.404   5.061   1.372  1.00  0.00    -0.002 C 
ATOM     31  C   UNL     1       1.494   4.912   2.422  1.00  0.00     0.004 C 
ENDBRANCH  29  30
ENDBRANCH  28  29
ENDBRANCH  21  28
BRANCH  26  32
ATOM     32  S   UNL     1      -5.605  -0.428  -2.122  1.00  0.00     0.243 S 
ATOM     33  O   UNL     1      -5.249  -1.740  -2.615  1.00  0.00    -0.207 OA
ATOM     34  O   UNL     1      -6.052   0.612  -3.025  1.00  0.00    -0.207 OA
BRANCH  32  35
ATOM     35  N   UNL     1      -6.789  -0.625  -0.914  1.00  0.00    -0.193 NA
ATOM     36  C   UNL     1      -6.512  -1.643   0.150  1.00  0.00     0.131 C 
ATOM     37  C   UNL     1      -8.190  -0.773  -1.421  1.00  0.00     0.131 C 
ATOM     38  C   UNL     1      -6.913  -3.058  -0.285  1.00  0.00     0.177 C 
ATOM     39  C   UNL     1      -8.486  -2.219  -1.826  1.00  0.00     0.177 C 
ATOM     40  O   UNL     1      -8.280  -3.107  -0.718  1.00  0.00    -0.379 OA
ENDBRANCH  32  35
ENDBRANCH  26  32
ENDBRANCH  18  19
ENDBRANCH   1  18
TORSDOF 12
