REMARK SMILES Cc1cc(S(=O)(=O)N(C)C)ccc1OCCCCCCN(C)S(=O)(=O)c1ccc(C(C)(C)C)cc1
REMARK SMILES IDX 17 1 16 2 15 3 14 4 13 5 1 6 2 7 3 8 4 9 12 10 11 11 5 12
REMARK SMILES IDX 6 13 7 14 8 15 9 16 10 17 18 18 19 19 20 20 21 21 22 22
REMARK SMILES IDX 23 23 24 24 25 25 26 26 27 27 35 28 28 29 34 30 29 31 30 32
REMARK SMILES IDX 31 33 32 34 33 35
REMARK H PARENT
REMARK Flexibility Score: inf
ROOT
ATOM      1  C   UNL     1       1.319   0.224   0.903  1.00  0.00     0.004 C 
ENDROOT
BRANCH   1   2
ATOM      2  C   UNL     1       2.261   1.236   1.560  1.00  0.00     0.042 C 
BRANCH   2   3
ATOM      3  C   UNL     1       3.715   0.765   1.544  1.00  0.00     0.229 C 
BRANCH   3   4
ATOM      4  O   UNL     1       4.153   0.683   0.189  1.00  0.00    -0.493 OA
BRANCH   4   5
ATOM      5  C   UNL     1       5.421   0.219  -0.044  1.00  0.00     0.122 A 
ATOM      6  C   UNL     1       4.775   0.372  -2.487  1.00  0.00     0.048 C 
ATOM      7  C   UNL     1       5.767   0.058  -1.401  1.00  0.00    -0.008 A 
ATOM      8  C   UNL     1       7.046  -0.408  -1.741  1.00  0.00     0.029 A 
ATOM      9  C   UNL     1       7.969  -0.701  -0.734  1.00  0.00     0.083 A 
ATOM     10  C   UNL     1       6.356  -0.085   0.953  1.00  0.00     0.048 A 
ATOM     11  C   UNL     1       7.629  -0.548   0.611  1.00  0.00     0.025 A 
BRANCH   9  12
ATOM     12  S   UNL     1       9.591  -1.290  -1.149  1.00  0.00     0.242 S 
ATOM     13  O   UNL     1       9.844  -2.456  -0.330  1.00  0.00    -0.207 OA
ATOM     14  O   UNL     1       9.710  -1.346  -2.591  1.00  0.00    -0.207 OA
BRANCH  12  15
ATOM     15  N   UNL     1      10.605  -0.020  -0.603  1.00  0.00    -0.204 NA
ATOM     16  C   UNL     1      10.440   1.263  -1.323  1.00  0.00     0.124 C 
ATOM     17  C   UNL     1      12.030  -0.418  -0.528  1.00  0.00     0.124 C 
ENDBRANCH  12  15
ENDBRANCH   9  12
ENDBRANCH   4   5
ENDBRANCH   3   4
ENDBRANCH   2   3
ENDBRANCH   1   2
BRANCH   1  18
ATOM     18  C   UNL     1      -0.132   0.710   0.942  1.00  0.00     0.001 C 
BRANCH  18  19
ATOM     19  C   UNL     1      -1.077  -0.318   0.312  1.00  0.00     0.017 C 
BRANCH  19  20
ATOM     20  C   UNL     1      -2.526   0.166   0.249  1.00  0.00     0.102 C 
BRANCH  20  21
ATOM     21  N   UNL     1      -3.077   0.328   1.615  1.00  0.00    -0.201 NA
ATOM     22  C   UNL     1      -3.488   1.703   1.939  1.00  0.00     0.124 C 
BRANCH  21  23
ATOM     23  S   UNL     1      -4.032  -0.934   2.241  1.00  0.00     0.242 S 
ATOM     24  O   UNL     1      -4.312  -0.640   3.631  1.00  0.00    -0.207 OA
ATOM     25  O   UNL     1      -3.431  -2.192   1.851  1.00  0.00    -0.207 OA
BRANCH  23  26
ATOM     26  C   UNL     1      -5.564  -0.770   1.347  1.00  0.00     0.082 A 
ATOM     27  C   UNL     1      -5.785  -1.526   0.197  1.00  0.00     0.022 A 
ATOM     28  C   UNL     1      -6.567   0.060   1.844  1.00  0.00     0.022 A 
ATOM     29  C   UNL     1      -7.002  -1.415  -0.486  1.00  0.00     0.005 A 
ATOM     30  C   UNL     1      -7.779   0.166   1.155  1.00  0.00     0.005 A 
ATOM     31  C   UNL     1      -8.023  -0.563  -0.028  1.00  0.00    -0.043 A 
BRANCH  31  32
ATOM     32  C   UNL     1      -9.373  -0.421  -0.755  1.00  0.00    -0.013 C 
ATOM     33  C   UNL     1      -9.593   1.053  -1.160  1.00  0.00     0.016 C 
ATOM     34  C   UNL     1     -10.515  -0.866   0.182  1.00  0.00     0.016 C 
ATOM     35  C   UNL     1      -9.481  -1.267  -2.043  1.00  0.00     0.016 C 
ENDBRANCH  31  32
ENDBRANCH  23  26
ENDBRANCH  21  23
ENDBRANCH  20  21
ENDBRANCH  19  20
ENDBRANCH  18  19
ENDBRANCH   1  18
TORSDOF 13
