REMARK SMILES [O]C(=O)c1[c][c][c]c(-c2[c][c][c][c]c2S[C][C]2[C]N(C(=O)[C]3[C][C]3)[C][C]N2C(=O)c2[c][c][c][c][c]2)[c]1
REMARK SMILES IDX 15 1 14 2 9 3 10 4 11 5 13 6 12 7 8 8 4 9 5 10 36 11 6 12
REMARK SMILES IDX 7 13 2 14 1 15 3 16 16 17 17 18 18 19 27 20 19 21 26 22
REMARK SMILES IDX 25 23 28 24 29 25 30 26 31 27 35 28 32 29 34 30 33 31 20 32
REMARK SMILES IDX 21 33 22 34 23 35 24 36
REMARK H PARENT
REMARK Flexibility Score: inf
ROOT
ATOM      1  S   UNL     1      -1.199  -0.143   3.437  1.00  0.00    -0.112 SA
ENDROOT
BRANCH   1   2
ATOM      2  C   UNL     1       0.478   0.495   3.429  1.00  0.00     0.025 A 
ATOM      3  C   UNL     1       1.552  -0.002   2.657  1.00  0.00     0.006 A 
ATOM      4  C   UNL     1       2.794   0.646   2.757  1.00  0.00     0.001 A 
ATOM      5  C   UNL     1       2.989   1.734   3.604  1.00  0.00     0.000 A 
ATOM      6  C   UNL     1       0.692   1.581   4.288  1.00  0.00     0.006 A 
ATOM      7  C   UNL     1       1.935   2.199   4.377  1.00  0.00     0.001 A 
BRANCH   3   8
ATOM      8  C   UNL     1       1.448  -1.133   1.734  1.00  0.00     0.001 A 
ATOM      9  C   UNL     1       1.364  -1.954  -0.567  1.00  0.00     0.081 A 
ATOM     10  C   UNL     1       1.073  -3.232  -0.086  1.00  0.00     0.007 A 
ATOM     11  C   UNL     1       1.576  -0.925   0.355  1.00  0.00     0.007 A 
ATOM     12  C   UNL     1       0.994  -3.473   1.283  1.00  0.00     0.000 A 
ATOM     13  C   UNL     1       1.167  -2.425   2.186  1.00  0.00     0.000 A 
BRANCH   9  14
ATOM     14  C   UNL     1       1.345  -1.659  -2.032  1.00  0.00     0.387 C 
ATOM     15  O   UNL     1       1.804  -0.533  -2.400  1.00  0.00    -0.241 OA
ATOM     16  O   UNL     1       0.820  -2.530  -2.793  1.00  0.00    -0.241 OA
ENDBRANCH   9  14
ENDBRANCH   3   8
ENDBRANCH   1   2
BRANCH   1  17
ATOM     17  C   UNL     1      -1.539   0.072   1.791  1.00  0.00     0.087 C 
BRANCH  17  18
ATOM     18  C   UNL     1      -1.742   0.151   0.387  1.00  0.00     0.117 C 
ATOM     19  C   UNL     1      -2.219  -0.990  -0.375  1.00  0.00     0.127 C 
ATOM     20  N   UNL     1      -1.179   1.195  -0.425  1.00  0.00    -0.313 N 
ATOM     21  N   UNL     1      -2.261  -1.498  -1.653  1.00  0.00    -0.315 N 
ATOM     22  C   UNL     1      -1.252   0.841  -1.751  1.00  0.00     0.129 C 
ATOM     23  C   UNL     1      -1.765  -0.463  -2.393  1.00  0.00     0.128 C 
BRANCH  20  24
ATOM     24  C   UNL     1      -0.628   2.354   0.137  1.00  0.00     0.256 C 
ATOM     25  O   UNL     1      -0.792   2.734   1.296  1.00  0.00    -0.269 OA
BRANCH  24  26
ATOM     26  C   UNL     1       0.188   3.228  -0.738  1.00  0.00     0.057 A 
ATOM     27  C   UNL     1       0.167   4.604  -0.505  1.00  0.00     0.005 A 
ATOM     28  C   UNL     1       1.053   2.700  -1.695  1.00  0.00     0.005 A 
ATOM     29  C   UNL     1       0.974   5.451  -1.259  1.00  0.00     0.000 A 
ATOM     30  C   UNL     1       1.860   3.548  -2.450  1.00  0.00     0.000 A 
ATOM     31  C   UNL     1       1.819   4.923  -2.233  1.00  0.00     0.000 A 
ENDBRANCH  24  26
ENDBRANCH  20  24
BRANCH  21  32
ATOM     32  C   UNL     1      -2.578  -2.799  -2.027  1.00  0.00     0.232 C 
ATOM     33  O   UNL     1      -3.069  -3.637  -1.270  1.00  0.00    -0.274 OA
BRANCH  32  34
ATOM     34  C   UNL     1      -2.325  -3.081  -3.463  1.00  0.00     0.080 C 
ATOM     35  C   UNL     1      -3.365  -3.567  -4.318  1.00  0.00     0.010 C 
ATOM     36  C   UNL     1      -2.181  -4.412  -3.969  1.00  0.00     0.010 C 
ENDBRANCH  32  34
ENDBRANCH  21  32
ENDBRANCH  17  18
ENDBRANCH   1  17
TORSDOF 9
