REMARK SMILES [O][C][C][C]1[C]N(C(=O)c2[c][c][c][c][c]2)[C][C]N1[C](Oc1[c][c][c]c2c1[C]=[C]c1[c][c][c][c]c1[C]2)[C]1[C][C]1
REMARK SMILES IDX 19 1 18 2 17 3 4 4 5 5 6 6 16 7 15 8 3 9 2 10 1 11 7 12 8 13
REMARK SMILES IDX 9 14 10 15 14 16 11 17 13 18 12 19 35 20 36 21 37 22 20 23
REMARK SMILES IDX 21 24 25 25 22 26 24 27 23 28 26 29 34 31 33 32 28 33 32 34
REMARK SMILES IDX 29 35 31 36 30 37 27 38
REMARK H PARENT
REMARK Flexibility Score: 40.00
ROOT
ATOM      1  O   UNL     1      -0.906  -0.727   2.880  1.00  0.00    -0.465 OA
ENDROOT
BRANCH   1   2
ATOM      2  C   UNL     1       0.175  -1.486   3.325  1.00  0.00     0.226 C 
BRANCH   2   3
ATOM      3  N   UNL     1       1.570  -1.176   2.900  1.00  0.00    -0.237 NA
ATOM      4  C   UNL     1       1.719  -1.454   1.382  1.00  0.00     0.086 C 
ATOM      5  C   UNL     1       1.989  -0.291   0.572  1.00  0.00     0.120 C 
ATOM      6  N   UNL     1       2.155   1.071   0.591  1.00  0.00    -0.313 N 
ATOM      7  C   UNL     1       1.807   0.290   3.023  1.00  0.00     0.100 C 
ATOM      8  C   UNL     1       2.106   1.339   1.931  1.00  0.00     0.122 C 
BRANCH   4   9
ATOM      9  C   UNL     1       1.480  -2.747   0.858  1.00  0.00     0.055 C 
BRANCH   9  10
ATOM     10  C   UNL     1       1.147  -4.116   0.244  1.00  0.00     0.184 C 
ATOM     11  O   UNL     1       0.818  -5.354  -0.328  1.00  0.00    -0.222 OA
ENDBRANCH   9  10
ENDBRANCH   4   9
BRANCH   6  12
ATOM     12  C   UNL     1       2.213   2.014  -0.438  1.00  0.00     0.256 C 
ATOM     13  O   UNL     1       2.401   3.216  -0.231  1.00  0.00    -0.269 OA
BRANCH  12  14
ATOM     14  C   UNL     1       2.021   1.577  -1.845  1.00  0.00     0.057 A 
ATOM     15  C   UNL     1       2.264   2.512  -2.853  1.00  0.00     0.005 A 
ATOM     16  C   UNL     1       1.527   0.321  -2.191  1.00  0.00     0.005 A 
ATOM     17  C   UNL     1       2.031   2.190  -4.189  1.00  0.00     0.000 A 
ATOM     18  C   UNL     1       1.293  -0.006  -3.525  1.00  0.00     0.000 A 
ATOM     19  C   UNL     1       1.544   0.930  -4.524  1.00  0.00     0.000 A 
ENDBRANCH  12  14
ENDBRANCH   6  12
ENDBRANCH   2   3
BRANCH   2  20
ATOM     20  C   UNL     1      -0.078  -2.192   4.554  1.00  0.00     0.057 C 
ATOM     21  C   UNL     1       0.703  -3.309   4.979  1.00  0.00     0.006 C 
ATOM     22  C   UNL     1       0.707  -2.013   5.734  1.00  0.00     0.006 C 
ENDBRANCH   2  20
ENDBRANCH   1   2
BRANCH   1  23
ATOM     23  C   UNL     1      -1.533  -1.193   1.749  1.00  0.00     0.139 A 
ATOM     24  C   UNL     1      -1.959  -2.520   1.648  1.00  0.00     0.037 A 
ATOM     25  C   UNL     1      -1.768  -0.327   0.689  1.00  0.00     0.031 A 
ATOM     26  C   UNL     1      -2.572  -2.987   0.480  1.00  0.00     0.003 A 
ATOM     27  C   UNL     1      -2.369  -0.817  -0.511  1.00  0.00    -0.015 A 
ATOM     28  C   UNL     1      -2.767  -2.142  -0.612  1.00  0.00    -0.004 A 
BRANCH  25  29
ATOM     29  C   UNL     1      -1.403   1.068   0.680  1.00  0.00     0.003 CG0
ATOM     30  G   UNL     1      -1.390   2.032  -0.037  1.00  0.00     0.000 G0
ENDBRANCH  25  29
BRANCH  27  31
ATOM     31  C   UNL     1      -2.511   0.113  -1.612  1.00  0.00     0.053 C 
BRANCH  31  32
ATOM     32  C   UNL     1      -2.317   1.419  -2.201  1.00  0.00    -0.018 A 
ATOM     33  C   UNL     1      -1.730   2.426  -1.376  1.00  0.00    -0.004 A 
ATOM     34  C   UNL     1      -2.651   1.698  -3.516  1.00  0.00    -0.004 A 
ATOM     35  C   UNL     1      -1.486   3.696  -1.875  1.00  0.00    -0.000 A 
ATOM     36  C   UNL     1      -2.403   2.979  -4.011  1.00  0.00    -0.000 A 
ATOM     37  C   UNL     1      -1.828   3.966  -3.200  1.00  0.00    -0.000 A 
BRANCH  33  38
ATOM     38  C   UNL     1      -1.390   2.032  -0.037  1.00  0.00    -0.000 CG0
ATOM     39  G   UNL     1      -1.403   1.068   0.680  1.00  0.00     0.000 G0
ENDBRANCH  33  38
ENDBRANCH  31  32
ENDBRANCH  27  31
ENDBRANCH   1  23
TORSDOF 8
