REMARK SMILES NC(=O)c1ccc(NC(=O)c2c(C(F)(F)F)ccc(CS(=O)(=O)c3ccccc3)c2F)c(-c2ccccc2)c1
REMARK SMILES IDX 11 1 30 2 31 3 19 4 18 5 17 6 12 7 9 8 8 9 10 11 7 12 4 13
REMARK SMILES IDX 5 14 39 15 6 16 32 17 2 18 1 19 3 22 33 23 34 24 38 25 35 26
REMARK SMILES IDX 37 27 36 28 13 29 14 30 15 31 16 32 20 33 21 34 22 35 23 36
REMARK SMILES IDX 24 37 25 38 29 39 26 40 28 41 27 42
REMARK H PARENT 8 10 1 20 1 21
REMARK Flexibility Score: inf
ROOT
ATOM      1  C   UNL     1       0.056  -2.108  -1.838  1.00  0.00     0.088 A 
ATOM      2  C   UNL     1       0.970  -1.802  -0.822  1.00  0.00     0.140 A 
ATOM      3  F   UNL     1       0.537  -1.298   0.345  1.00  0.00    -0.206 F 
ATOM      4  C   UNL     1       2.346  -2.004  -0.979  1.00  0.00     0.004 A 
ATOM      5  C   UNL     1       2.813  -2.541  -2.180  1.00  0.00     0.008 A 
ATOM      6  C   UNL     1       1.914  -2.855  -3.202  1.00  0.00     0.014 A 
ATOM      7  C   UNL     1       0.528  -2.634  -3.055  1.00  0.00     0.071 A 
ENDROOT
BRANCH   1   8
ATOM      8  C   UNL     1      -1.398  -1.904  -1.600  1.00  0.00     0.259 C 
ATOM      9  N   UNL     1      -1.735  -0.775  -0.880  1.00  0.00    -0.321 N 
ATOM     10  H   UNL     1      -0.967  -0.233  -0.495  1.00  0.00     0.170 HD
ATOM     11  O   UNL     1      -2.165  -2.743  -2.054  1.00  0.00    -0.269 OA
BRANCH   9  12
ATOM     12  C   UNL     1      -3.030  -0.302  -0.547  1.00  0.00     0.049 A 
ATOM     13  C   UNL     1      -5.584   0.682   0.151  1.00  0.00     0.040 A 
ATOM     14  C   UNL     1      -5.462  -0.449  -0.656  1.00  0.00     0.016 A 
ATOM     15  C   UNL     1      -4.429   1.315   0.621  1.00  0.00     0.024 A 
ATOM     16  C   UNL     1      -4.195  -0.931  -1.004  1.00  0.00     0.027 A 
ATOM     17  C   UNL     1      -3.144   0.846   0.279  1.00  0.00     0.006 A 
BRANCH  13  18
ATOM     18  C   UNL     1      -6.905   1.232   0.553  1.00  0.00     0.248 C 
ATOM     19  N   UNL     1      -7.980   0.937  -0.240  1.00  0.00    -0.366 N 
ATOM     20  H   UNL     1      -8.838   1.425  -0.018  1.00  0.00     0.159 HD
ATOM     21  H   UNL     1      -7.874   0.594  -1.184  1.00  0.00     0.159 HD
ATOM     22  O   UNL     1      -7.031   1.950   1.536  1.00  0.00    -0.270 OA
ENDBRANCH  13  18
BRANCH  17  23
ATOM     23  C   UNL     1      -1.975   1.569   0.810  1.00  0.00    -0.016 A 
ATOM     24  C   UNL     1      -1.172   2.357  -0.030  1.00  0.00     0.009 A 
ATOM     25  C   UNL     1      -1.637   1.481   2.170  1.00  0.00     0.009 A 
ATOM     26  C   UNL     1      -0.054   3.025   0.474  1.00  0.00     0.001 A 
ATOM     27  C   UNL     1      -0.524   2.158   2.675  1.00  0.00     0.001 A 
ATOM     28  C   UNL     1       0.267   2.928   1.826  1.00  0.00     0.000 A 
ENDBRANCH  17  23
ENDBRANCH   9  12
ENDBRANCH   1   8
BRANCH   7  29
ATOM     29  C   UNL     1      -0.394  -2.948  -4.212  1.00  0.00     0.417 C 
ATOM     30  F   UNL     1      -1.307  -1.972  -4.463  1.00  0.00    -0.166 F 
ATOM     31  F   UNL     1      -1.068  -4.118  -4.067  1.00  0.00    -0.166 F 
ATOM     32  F   UNL     1       0.295  -3.084  -5.387  1.00  0.00    -0.166 F 
ENDBRANCH   7  29
BRANCH   4  33
ATOM     33  C   UNL     1       3.291  -1.595   0.118  1.00  0.00     0.180 C 
BRANCH  33  34
ATOM     34  S   UNL     1       3.856   0.072  -0.217  1.00  0.00     0.182 S 
ATOM     35  O   UNL     1       2.717   0.953  -0.394  1.00  0.00    -0.223 OA
ATOM     36  O   UNL     1       4.899   0.003  -1.226  1.00  0.00    -0.223 OA
BRANCH  34  37
ATOM     37  C   UNL     1       4.629   0.533   1.317  1.00  0.00     0.067 A 
ATOM     38  C   UNL     1       3.826   0.965   2.378  1.00  0.00     0.020 A 
ATOM     39  C   UNL     1       6.019   0.487   1.441  1.00  0.00     0.020 A 
ATOM     40  C   UNL     1       4.424   1.331   3.583  1.00  0.00     0.001 A 
ATOM     41  C   UNL     1       6.608   0.855   2.651  1.00  0.00     0.001 A 
ATOM     42  C   UNL     1       5.812   1.272   3.719  1.00  0.00     0.000 A 
ENDBRANCH  34  37
ENDBRANCH  33  34
ENDBRANCH   4  33
TORSDOF 8
