REMARK SMILES NC(=O)Cc1ccc(NC(=O)c2c(C(F)(F)F)ccc(CS(=O)(=O)c3ccccc3)c2F)c(-c2ccccc2)c1
REMARK SMILES IDX 12 1 31 2 32 3 20 4 19 5 18 6 13 7 10 8 9 9 11 11 8 12 5 13
REMARK SMILES IDX 6 14 40 15 7 16 33 17 4 18 2 19 1 20 3 23 34 24 35 25 39 26
REMARK SMILES IDX 36 27 38 28 37 29 14 30 15 31 16 32 17 33 21 34 22 35 23 36
REMARK SMILES IDX 24 37 25 38 26 39 30 40 27 41 29 42 28 43
REMARK H PARENT 9 10 1 21 1 22
REMARK Flexibility Score: inf
ROOT
ATOM      1  C   UNL     1       0.750   2.586   0.049  1.00  0.00     0.088 A 
ATOM      2  C   UNL     1       1.721   1.647   0.411  1.00  0.00     0.140 A 
ATOM      3  F   UNL     1       1.421   0.670   1.280  1.00  0.00    -0.206 F 
ATOM      4  C   UNL     1       3.022   1.714  -0.096  1.00  0.00     0.004 A 
ATOM      5  C   UNL     1       3.341   2.743  -0.990  1.00  0.00     0.008 A 
ATOM      6  C   UNL     1       2.376   3.688  -1.353  1.00  0.00     0.014 A 
ATOM      7  C   UNL     1       1.067   3.624  -0.841  1.00  0.00     0.071 A 
ENDROOT
BRANCH   1   8
ATOM      8  C   UNL     1      -0.587   2.501   0.671  1.00  0.00     0.259 C 
ATOM      9  N   UNL     1      -1.229   1.296   0.492  1.00  0.00    -0.321 N 
ATOM     10  H   UNL     1      -0.752   0.602  -0.075  1.00  0.00     0.170 HD
ATOM     11  O   UNL     1      -0.994   3.500   1.249  1.00  0.00    -0.269 OA
BRANCH   9  12
ATOM     12  C   UNL     1      -2.498   0.902   0.990  1.00  0.00     0.049 A 
ATOM     13  C   UNL     1      -5.031   0.071   1.940  1.00  0.00    -0.038 A 
ATOM     14  C   UNL     1      -4.511   1.317   2.296  1.00  0.00     0.006 A 
ATOM     15  C   UNL     1      -4.272  -0.762   1.109  1.00  0.00     0.015 A 
ATOM     16  C   UNL     1      -3.260   1.727   1.825  1.00  0.00     0.027 A 
ATOM     17  C   UNL     1      -3.008  -0.369   0.626  1.00  0.00     0.006 A 
BRANCH  13  18
ATOM     18  C   UNL     1      -6.393  -0.366   2.424  1.00  0.00     0.135 C 
BRANCH  18  19
ATOM     19  C   UNL     1      -7.439  -0.422   1.327  1.00  0.00     0.221 C 
ATOM     20  N   UNL     1      -7.610   0.721   0.598  1.00  0.00    -0.369 N 
ATOM     21  H   UNL     1      -6.862   1.400   0.530  1.00  0.00     0.159 HD
ATOM     22  H   UNL     1      -8.237   0.650  -0.193  1.00  0.00     0.159 HD
ATOM     23  O   UNL     1      -8.147  -1.403   1.123  1.00  0.00    -0.275 OA
ENDBRANCH  18  19
ENDBRANCH  13  18
BRANCH  17  24
ATOM     24  C   UNL     1      -2.275  -1.296  -0.254  1.00  0.00    -0.016 A 
ATOM     25  C   UNL     1      -1.145  -1.988   0.209  1.00  0.00     0.009 A 
ATOM     26  C   UNL     1      -2.681  -1.488  -1.584  1.00  0.00     0.009 A 
ATOM     27  C   UNL     1      -0.429  -2.832  -0.641  1.00  0.00     0.001 A 
ATOM     28  C   UNL     1      -1.969  -2.338  -2.432  1.00  0.00     0.001 A 
ATOM     29  C   UNL     1      -0.841  -3.006  -1.961  1.00  0.00     0.000 A 
ENDBRANCH  17  24
ENDBRANCH   9  12
ENDBRANCH   1   8
BRANCH   7  30
ATOM     30  C   UNL     1       0.044   4.655  -1.252  1.00  0.00     0.417 C 
ATOM     31  F   UNL     1      -0.132   5.636  -0.329  1.00  0.00    -0.166 F 
ATOM     32  F   UNL     1       0.408   5.306  -2.398  1.00  0.00    -0.166 F 
ATOM     33  F   UNL     1      -1.180   4.130  -1.525  1.00  0.00    -0.166 F 
ENDBRANCH   7  30
BRANCH   4  34
ATOM     34  C   UNL     1       4.044   0.684   0.304  1.00  0.00     0.180 C 
BRANCH  34  35
ATOM     35  S   UNL     1       3.984  -0.673  -0.860  1.00  0.00     0.182 S 
ATOM     36  O   UNL     1       4.521  -0.218  -2.130  1.00  0.00    -0.223 OA
ATOM     37  O   UNL     1       2.684  -1.314  -0.792  1.00  0.00    -0.223 OA
BRANCH  35  38
ATOM     38  C   UNL     1       5.160  -1.817  -0.172  1.00  0.00     0.067 A 
ATOM     39  C   UNL     1       4.741  -2.722   0.808  1.00  0.00     0.020 A 
ATOM     40  C   UNL     1       6.479  -1.820  -0.635  1.00  0.00     0.020 A 
ATOM     41  C   UNL     1       5.662  -3.621   1.347  1.00  0.00     0.001 A 
ATOM     42  C   UNL     1       7.392  -2.722  -0.090  1.00  0.00     0.001 A 
ATOM     43  C   UNL     1       6.985  -3.618   0.900  1.00  0.00     0.000 A 
ENDBRANCH  35  38
ENDBRANCH  34  35
ENDBRANCH   4  34
TORSDOF 9
