REMARK SMILES Cc1ccc(C(=O)N(C)c2ccc(C(F)(F)F)cc2NS(=O)(=O)c2ccc(C3CCCCC3)cc2)cc1
REMARK SMILES IDX 10 1 11 2 12 3 13 4 18 5 19 6 8 7 9 8 6 9 7 10 5 11 4 12
REMARK SMILES IDX 36 13 3 14 37 15 2 16 1 17 20 18 21 20 22 21 23 22 24 23
REMARK SMILES IDX 25 24 35 25 26 26 34 27 27 28 28 29 29 30 33 31 30 32 32 33
REMARK SMILES IDX 31 34 14 35 15 36 16 37 17 38
REMARK H PARENT 20 19
REMARK Flexibility Score: inf
ROOT
ATOM      1  C   UNL     1       2.504  -1.915  -0.588  1.00  0.00     0.068 A 
ATOM      2  C   UNL     1       2.419  -3.300  -0.346  1.00  0.00     0.029 A 
ATOM      3  C   UNL     1       1.259  -4.034  -0.633  1.00  0.00     0.015 A 
ATOM      4  C   UNL     1       0.134  -3.408  -1.171  1.00  0.00     0.058 A 
ATOM      5  C   UNL     1       0.188  -2.029  -1.398  1.00  0.00     0.042 A 
ATOM      6  C   UNL     1       1.346  -1.290  -1.113  1.00  0.00     0.073 A 
ENDROOT
BRANCH   1   7
ATOM      7  N   UNL     1       3.722  -1.200  -0.246  1.00  0.00    -0.309 N 
ATOM      8  C   UNL     1       4.609  -1.821   0.742  1.00  0.00     0.153 C 
BRANCH   7   9
ATOM      9  C   UNL     1       4.125  -0.059  -0.959  1.00  0.00     0.258 C 
ATOM     10  O   UNL     1       3.657   0.306  -2.038  1.00  0.00    -0.269 OA
BRANCH   9  11
ATOM     11  C   UNL     1       5.186   0.801  -0.393  1.00  0.00     0.040 A 
ATOM     12  C   UNL     1       6.361   1.001  -1.120  1.00  0.00     0.014 A 
ATOM     13  C   UNL     1       4.982   1.456   0.826  1.00  0.00     0.014 A 
ATOM     14  C   UNL     1       7.356   1.834  -0.605  1.00  0.00     0.004 A 
ATOM     15  C   UNL     1       5.980   2.288   1.335  1.00  0.00     0.004 A 
ATOM     16  C   UNL     1       7.170   2.489   0.621  1.00  0.00    -0.051 A 
ATOM     17  C   UNL     1       8.252   3.363   1.185  1.00  0.00     0.044 C 
ENDBRANCH   9  11
ENDBRANCH   7   9
ENDBRANCH   1   7
BRANCH   6  18
ATOM     18  N   UNL     1       1.221   0.125  -1.268  1.00  0.00    -0.277 N 
ATOM     19  H   UNL     1       1.996   0.561  -1.788  1.00  0.00     0.180 HD
BRANCH  18  20
ATOM     20  S   UNL     1       0.824   1.028   0.102  1.00  0.00     0.261 S 
ATOM     21  O   UNL     1       1.099   2.415  -0.205  1.00  0.00    -0.201 OA
ATOM     22  O   UNL     1       1.386   0.409   1.286  1.00  0.00    -0.201 OA
BRANCH  20  23
ATOM     23  C   UNL     1      -0.943   0.846   0.157  1.00  0.00     0.087 A 
ATOM     24  C   UNL     1      -1.526  -0.018   1.086  1.00  0.00     0.022 A 
ATOM     25  C   UNL     1      -1.733   1.580  -0.729  1.00  0.00     0.022 A 
ATOM     26  C   UNL     1      -2.913  -0.167   1.108  1.00  0.00     0.005 A 
ATOM     27  C   UNL     1      -3.120   1.427  -0.699  1.00  0.00     0.005 A 
ATOM     28  C   UNL     1      -3.727   0.547   0.213  1.00  0.00    -0.045 A 
BRANCH  28  29
ATOM     29  C   UNL     1      -5.235   0.366   0.259  1.00  0.00     0.019 C 
ATOM     30  C   UNL     1      -5.824  -0.047  -1.098  1.00  0.00     0.008 C 
ATOM     31  C   UNL     1      -5.941   1.620   0.815  1.00  0.00     0.008 C 
ATOM     32  C   UNL     1      -7.313  -0.391  -0.984  1.00  0.00     0.001 C 
ATOM     33  C   UNL     1      -7.399   1.749   0.362  1.00  0.00     0.001 C 
ATOM     34  C   UNL     1      -8.041   0.392   0.110  1.00  0.00     0.000 C 
ENDBRANCH  28  29
ENDBRANCH  20  23
ENDBRANCH  18  20
ENDBRANCH   6  18
BRANCH   4  35
ATOM     35  C   UNL     1      -1.130  -4.179  -1.454  1.00  0.00     0.416 C 
ATOM     36  F   UNL     1      -1.803  -3.723  -2.546  1.00  0.00    -0.166 F 
ATOM     37  F   UNL     1      -2.011  -4.121  -0.418  1.00  0.00    -0.166 F 
ATOM     38  F   UNL     1      -0.908  -5.504  -1.681  1.00  0.00    -0.166 F 
ENDBRANCH   4  35
TORSDOF 8
