REMARK SMILES Cc1cc(NC(=O)c2ccc(NS(=O)(=O)CCO)cc2C2CCC3(CC2)CC3)nc(N2CCC(F)(F)CC2)n1
REMARK SMILES IDX 12 1 11 3 8 4 9 5 20 6 10 7 19 8 6 9 5 10 7 11 4 13 3 14
REMARK SMILES IDX 29 15 2 16 30 17 39 18 1 19 31 20 32 21 38 22 33 23 37 24
REMARK SMILES IDX 34 25 35 26 36 27 21 28 22 29 26 30 23 31 25 32 24 33 27 34
REMARK SMILES IDX 28 35 13 36 14 37 15 38 16 39 17 40 18 41
REMARK H PARENT 12 2 5 12 18 42
REMARK Flexibility Score: inf
ROOT
ATOM      1  N   UNL     1      -5.043   1.000  -0.540  1.00  0.00    -0.283 N 
ATOM      2  H   UNL     1      -5.449   0.065  -0.646  1.00  0.00     0.180 HD
ENDROOT
BRANCH   1   3
ATOM      3  C   UNL     1      -3.641   0.930  -0.254  1.00  0.00     0.049 A 
ATOM      4  C   UNL     1      -0.936   0.860   0.412  1.00  0.00     0.043 A 
ATOM      5  C   UNL     1      -1.446   1.907  -0.374  1.00  0.00     0.016 A 
ATOM      6  C   UNL     1      -1.776  -0.172   0.882  1.00  0.00    -0.030 A 
ATOM      7  C   UNL     1      -2.800   1.941  -0.704  1.00  0.00     0.027 A 
ATOM      8  C   UNL     1      -3.144  -0.102   0.548  1.00  0.00     0.031 A 
BRANCH   4   9
ATOM      9  C   UNL     1       0.508   0.916   0.756  1.00  0.00     0.257 C 
ATOM     10  N   UNL     1       1.335   0.874  -0.340  1.00  0.00    -0.306 N 
ATOM     11  O   UNL     1       0.837   0.986   1.932  1.00  0.00    -0.269 OA
ATOM     12  H   UNL     1       0.934   0.772  -1.263  1.00  0.00     0.171 HD
BRANCH  10  13
ATOM     13  C   UNL     1       2.731   0.922  -0.367  1.00  0.00     0.138 A 
ATOM     14  C   UNL     1       3.514   1.063   0.751  1.00  0.00     0.070 A 
ATOM     15  N   UNL     1       3.242   0.824  -1.607  1.00  0.00    -0.195 NA
ATOM     16  C   UNL     1       4.870   1.099   0.531  1.00  0.00     0.045 A 
ATOM     17  C   UNL     1       4.576   0.864  -1.751  1.00  0.00     0.227 A 
ATOM     18  N   UNL     1       5.402   1.003  -0.703  1.00  0.00    -0.218 NA
ATOM     19  C   UNL     1       5.818   1.255   1.681  1.00  0.00     0.067 C 
BRANCH  17  20
ATOM     20  N   UNL     1       5.122   0.792  -3.044  1.00  0.00    -0.340 N 
ATOM     21  C   UNL     1       4.259   0.092  -3.998  1.00  0.00     0.126 C 
ATOM     22  C   UNL     1       6.537   0.407  -3.053  1.00  0.00     0.126 C 
ATOM     23  C   UNL     1       4.804   0.254  -5.407  1.00  0.00     0.098 C 
ATOM     24  C   UNL     1       7.111   0.571  -4.451  1.00  0.00     0.098 C 
ATOM     25  C   UNL     1       6.254  -0.169  -5.450  1.00  0.00     0.251 C 
ATOM     26  F   UNL     1       6.743   0.036  -6.700  1.00  0.00    -0.207 F 
ATOM     27  F   UNL     1       6.343  -1.506  -5.226  1.00  0.00    -0.207 F 
ENDBRANCH  17  20
ENDBRANCH  10  13
ENDBRANCH   4   9
BRANCH   6  28
ATOM     28  C   UNL     1      -1.257  -1.313   1.753  1.00  0.00     0.020 C 
ATOM     29  C   UNL     1      -1.613  -2.706   1.186  1.00  0.00     0.009 C 
ATOM     30  C   UNL     1      -1.680  -1.141   3.229  1.00  0.00     0.009 C 
ATOM     31  C   UNL     1      -1.433  -3.785   2.249  1.00  0.00     0.007 C 
ATOM     32  C   UNL     1      -2.784  -2.110   3.646  1.00  0.00     0.007 C 
ATOM     33  C   UNL     1      -2.367  -3.552   3.421  1.00  0.00    -0.030 C 
ATOM     34  C   UNL     1      -2.188  -4.445   4.633  1.00  0.00     0.007 C 
ATOM     35  C   UNL     1      -3.388  -4.623   3.751  1.00  0.00     0.007 C 
ENDBRANCH   6  28
ENDBRANCH   1   3
BRANCH   1  36
ATOM     36  S   UNL     1      -5.970   1.808   0.641  1.00  0.00     0.234 S 
ATOM     37  O   UNL     1      -5.176   2.834   1.283  1.00  0.00    -0.207 OA
ATOM     38  O   UNL     1      -6.628   0.762   1.393  1.00  0.00    -0.207 OA
BRANCH  36  39
ATOM     39  C   UNL     1      -7.185   2.619  -0.379  1.00  0.00     0.188 C 
BRANCH  39  40
ATOM     40  C   UNL     1      -6.571   3.744  -1.185  1.00  0.00     0.174 C 
BRANCH  40  41
ATOM     41  O   UNL     1      -6.350   4.899  -0.381  1.00  0.00    -0.395 OA
ATOM     42  H   UNL     1      -5.707   4.662   0.320  1.00  0.00     0.210 HD
ENDBRANCH  40  41
ENDBRANCH  39  40
ENDBRANCH  36  39
ENDBRANCH   1  36
TORSDOF 9
