REMARK SMILES Cc1cc(Nc2ncnc3cc(NS(=O)(=O)CCO)cc(N4CCC5(CC4)CC5)c23)cc(N2CCC(F)(F)CC2)c1
REMARK SMILES IDX 13 1 12 3 30 4 10 5 21 6 6 7 11 8 9 9 20 10 7 11 8 12 22 13
REMARK SMILES IDX 23 14 27 15 24 16 26 17 25 18 28 19 29 20 5 21 4 23 3 24
REMARK SMILES IDX 31 25 2 26 32 27 41 28 1 29 33 30 34 31 40 32 35 33 39 34
REMARK SMILES IDX 36 35 37 36 38 37 14 38 15 39 16 40 17 41 18 42 19 43
REMARK H PARENT 13 2 5 22 19 44
REMARK Flexibility Score: inf
ROOT
ATOM      1  N   UNL     1       5.746   1.222  -1.085  1.00  0.00    -0.283 N 
ATOM      2  H   UNL     1       6.263   0.467  -1.542  1.00  0.00     0.180 HD
ENDROOT
BRANCH   1   3
ATOM      3  C   UNL     1       4.326   1.072  -1.087  1.00  0.00     0.053 A 
ATOM      4  C   UNL     1       1.523   0.870  -0.981  1.00  0.00     0.067 A 
ATOM      5  C   UNL     1       2.141   2.092  -1.304  1.00  0.00     0.080 A 
ATOM      6  C   UNL     1       2.354  -0.278  -0.710  1.00  0.00     0.052 A 
ATOM      7  C   UNL     1       0.102   0.925  -0.969  1.00  0.00     0.143 A 
ATOM      8  C   UNL     1       3.523   2.176  -1.343  1.00  0.00     0.056 A 
ATOM      9  N   UNL     1       1.472   3.211  -1.584  1.00  0.00    -0.236 NA
ATOM     10  C   UNL     1       3.751  -0.148  -0.764  1.00  0.00     0.053 A 
ATOM     11  N   UNL     1      -0.577   2.055  -1.254  1.00  0.00    -0.219 NA
ATOM     12  C   UNL     1       0.140   3.137  -1.547  1.00  0.00     0.224 A 
BRANCH   6  13
ATOM     13  N   UNL     1       1.751  -1.525  -0.353  1.00  0.00    -0.371 N 
ATOM     14  C   UNL     1       2.222  -2.665  -1.180  1.00  0.00     0.117 C 
ATOM     15  C   UNL     1       1.922  -1.779   1.105  1.00  0.00     0.117 C 
ATOM     16  C   UNL     1       1.405  -3.917  -0.839  1.00  0.00     0.028 C 
ATOM     17  C   UNL     1       1.107  -3.014   1.512  1.00  0.00     0.028 C 
ATOM     18  C   UNL     1       1.467  -4.209   0.648  1.00  0.00    -0.026 C 
ATOM     19  C   UNL     1       2.498  -5.194   1.157  1.00  0.00     0.008 C 
ATOM     20  C   UNL     1       1.046  -5.582   1.123  1.00  0.00     0.008 C 
ENDBRANCH   6  13
BRANCH   7  21
ATOM     21  N   UNL     1      -0.621  -0.244  -0.638  1.00  0.00    -0.339 N 
ATOM     22  H   UNL     1       0.004  -1.052  -0.611  1.00  0.00     0.168 HD
BRANCH  21  23
ATOM     23  C   UNL     1      -1.981  -0.518  -0.425  1.00  0.00     0.042 A 
ATOM     24  C   UNL     1      -2.394  -1.855  -0.379  1.00  0.00     0.029 A 
ATOM     25  C   UNL     1      -2.962   0.471  -0.270  1.00  0.00     0.052 A 
ATOM     26  C   UNL     1      -3.732  -2.198  -0.171  1.00  0.00    -0.047 A 
ATOM     27  C   UNL     1      -4.327   0.180  -0.074  1.00  0.00     0.039 A 
ATOM     28  C   UNL     1      -4.682  -1.177  -0.034  1.00  0.00     0.029 A 
ATOM     29  C   UNL     1      -4.157  -3.636  -0.165  1.00  0.00     0.044 C 
BRANCH  27  30
ATOM     30  N   UNL     1      -5.279   1.186   0.067  1.00  0.00    -0.371 N 
ATOM     31  C   UNL     1      -5.015   2.536  -0.443  1.00  0.00     0.122 C 
ATOM     32  C   UNL     1      -6.525   0.940   0.799  1.00  0.00     0.122 C 
ATOM     33  C   UNL     1      -6.327   3.218  -0.786  1.00  0.00     0.098 C 
ATOM     34  C   UNL     1      -6.985   2.218   1.476  1.00  0.00     0.098 C 
ATOM     35  C   UNL     1      -7.206   3.304   0.444  1.00  0.00     0.251 C 
ATOM     36  F   UNL     1      -7.023   4.512   1.045  1.00  0.00    -0.207 F 
ATOM     37  F   UNL     1      -8.508   3.286   0.046  1.00  0.00    -0.207 F 
ENDBRANCH  27  30
ENDBRANCH  21  23
ENDBRANCH   7  21
ENDBRANCH   1   3
BRANCH   1  38
ATOM     38  S   UNL     1       6.480   1.553   0.408  1.00  0.00     0.234 S 
ATOM     39  O   UNL     1       5.601   1.155   1.484  1.00  0.00    -0.207 OA
ATOM     40  O   UNL     1       7.817   1.009   0.293  1.00  0.00    -0.207 OA
BRANCH  38  41
ATOM     41  C   UNL     1       6.608   3.328   0.356  1.00  0.00     0.188 C 
BRANCH  41  42
ATOM     42  C   UNL     1       7.328   3.833   1.587  1.00  0.00     0.174 C 
BRANCH  42  43
ATOM     43  O   UNL     1       7.463   5.251   1.523  1.00  0.00    -0.395 OA
ATOM     44  H   UNL     1       8.190   5.456   0.910  1.00  0.00     0.210 HD
ENDBRANCH  42  43
ENDBRANCH  41  42
ENDBRANCH  38  41
ENDBRANCH   1  38
TORSDOF 9
