REMARK SMILES Cc1cccc(Nc2ncnc3cc(NS(=O)(=O)CCO)cc(N4CCC5(CC4)CC5)c23)c1
REMARK SMILES IDX 16 1 17 2 18 3 15 4 14 6 32 7 12 8 23 9 8 10 13 11 11 12
REMARK SMILES IDX 22 13 9 14 10 15 24 16 25 17 29 18 26 19 28 20 27 21 30 22
REMARK SMILES IDX 31 23 7 24 6 26 5 27 33 28 4 29 2 30 3 31 1 32 19 33 20 34
REMARK SMILES IDX 21 35
REMARK H PARENT 15 5 7 25 21 36
REMARK Flexibility Score: inf
ROOT
ATOM      1  S   UNL     1       5.248   0.529  -0.329  1.00  0.00     0.234 S 
ATOM      2  O   UNL     1       6.151   1.593   0.057  1.00  0.00    -0.207 OA
ATOM      3  O   UNL     1       4.352   0.684  -1.454  1.00  0.00    -0.207 OA
ENDROOT
BRANCH   1   4
ATOM      4  N   UNL     1       4.358   0.180   1.072  1.00  0.00    -0.283 N 
ATOM      5  H   UNL     1       4.446   0.966   1.720  1.00  0.00     0.180 HD
BRANCH   4   6
ATOM      6  C   UNL     1       3.031  -0.312   0.887  1.00  0.00     0.053 A 
ATOM      7  C   UNL     1       0.454  -1.337   0.424  1.00  0.00     0.067 A 
ATOM      8  C   UNL     1       1.546  -2.205   0.606  1.00  0.00     0.080 A 
ATOM      9  C   UNL     1       0.685   0.085   0.455  1.00  0.00     0.052 A 
ATOM     10  C   UNL     1      -0.785  -1.999   0.204  1.00  0.00     0.143 A 
ATOM     11  C   UNL     1       2.811  -1.682   0.826  1.00  0.00     0.056 A 
ATOM     12  N   UNL     1       1.447  -3.535   0.576  1.00  0.00    -0.236 NA
ATOM     13  C   UNL     1       1.980   0.572   0.696  1.00  0.00     0.053 A 
ATOM     14  N   UNL     1      -0.888  -3.342   0.176  1.00  0.00    -0.219 NA
ATOM     15  C   UNL     1       0.231  -4.040   0.358  1.00  0.00     0.224 A 
BRANCH   9  16
ATOM     16  N   UNL     1      -0.390   0.992   0.230  1.00  0.00    -0.371 N 
ATOM     17  C   UNL     1      -0.192   1.889  -0.939  1.00  0.00     0.117 C 
ATOM     18  C   UNL     1      -0.814   1.654   1.489  1.00  0.00     0.117 C 
ATOM     19  C   UNL     1      -0.099   3.366  -0.543  1.00  0.00     0.028 C 
ATOM     20  C   UNL     1      -1.865   2.727   1.191  1.00  0.00     0.028 C 
ATOM     21  C   UNL     1      -1.307   3.799   0.269  1.00  0.00    -0.026 C 
ATOM     22  C   UNL     1      -2.294   4.766  -0.355  1.00  0.00     0.008 C 
ATOM     23  C   UNL     1      -1.366   5.245   0.720  1.00  0.00     0.008 C 
ENDBRANCH   9  16
BRANCH  10  24
ATOM     24  N   UNL     1      -1.952  -1.213   0.048  1.00  0.00    -0.340 N 
ATOM     25  H   UNL     1      -1.688  -0.251  -0.172  1.00  0.00     0.168 HD
BRANCH  24  26
ATOM     26  C   UNL     1      -3.303  -1.522  -0.165  1.00  0.00     0.040 A 
ATOM     27  C   UNL     1      -4.162  -0.499  -0.597  1.00  0.00     0.026 A 
ATOM     28  C   UNL     1      -3.860  -2.785   0.059  1.00  0.00     0.029 A 
ATOM     29  C   UNL     1      -5.521  -0.735  -0.820  1.00  0.00     0.002 A 
ATOM     30  C   UNL     1      -5.229  -3.035  -0.146  1.00  0.00    -0.049 A 
ATOM     31  C   UNL     1      -6.052  -2.003  -0.601  1.00  0.00     0.003 A 
ATOM     32  C   UNL     1      -5.781  -4.413   0.069  1.00  0.00     0.044 C 
ENDBRANCH  24  26
ENDBRANCH  10  24
ENDBRANCH   4   6
ENDBRANCH   1   4
BRANCH   1  33
ATOM     33  C   UNL     1       6.202  -0.960  -0.526  1.00  0.00     0.188 C 
BRANCH  33  34
ATOM     34  C   UNL     1       7.145  -0.819  -1.702  1.00  0.00     0.174 C 
BRANCH  34  35
ATOM     35  O   UNL     1       7.904  -2.018  -1.836  1.00  0.00    -0.395 OA
ATOM     36  H   UNL     1       8.488  -1.903  -2.606  1.00  0.00     0.210 HD
ENDBRANCH  34  35
ENDBRANCH  33  34
ENDBRANCH   1  33
TORSDOF 8
