REMARK SMILES CC(C)(C)NS(=O)(=O)c1cccc(NC(=O)c2ncc(NC(C)(C)CO)nc2N2CCC3(CC2)CC3)n1
REMARK SMILES IDX 28 1 17 2 18 3 19 4 20 5 27 6 29 7 30 8 34 9 31 10 33 11
REMARK SMILES IDX 32 12 35 13 36 14 15 15 14 16 16 17 13 19 12 20 37 21 11 22
REMARK SMILES IDX 9 23 10 24 6 25 7 26 8 27 5 28 2 30 1 31 3 32 4 33 21 34
REMARK SMILES IDX 22 36 23 37 24 38 25 39 26 40
REMARK H PARENT 14 18 5 29 21 35 26 41
REMARK Flexibility Score: inf
ROOT
ATOM      1  C   UNL     1      -1.952   1.026   0.557  1.00  0.00     0.162 A 
ATOM      2  C   UNL     1      -0.606   0.647   0.389  1.00  0.00     0.171 A 
ATOM      3  N   UNL     1      -0.229  -0.646   0.113  1.00  0.00    -0.243 NA
ATOM      4  C   UNL     1      -1.240  -1.540   0.037  1.00  0.00     0.158 A 
ATOM      5  C   UNL     1      -2.572  -1.204   0.238  1.00  0.00     0.147 A 
ATOM      6  N   UNL     1      -2.927   0.073   0.478  1.00  0.00    -0.210 NA
ENDROOT
BRANCH   1   7
ATOM      7  N   UNL     1      -2.373   2.351   0.765  1.00  0.00    -0.355 N 
ATOM      8  C   UNL     1      -2.361   3.111  -0.506  1.00  0.00     0.118 C 
ATOM      9  C   UNL     1      -3.597   2.492   1.579  1.00  0.00     0.118 C 
ATOM     10  C   UNL     1      -3.202   4.388  -0.396  1.00  0.00     0.028 C 
ATOM     11  C   UNL     1      -4.835   2.778   0.723  1.00  0.00     0.028 C 
ATOM     12  C   UNL     1      -4.651   4.053  -0.085  1.00  0.00    -0.026 C 
ATOM     13  C   UNL     1      -5.716   4.395  -1.108  1.00  0.00     0.008 C 
ATOM     14  C   UNL     1      -5.605   5.207   0.147  1.00  0.00     0.008 C 
ENDBRANCH   1   7
BRANCH   2  15
ATOM     15  C   UNL     1       0.569   1.591   0.532  1.00  0.00     0.279 C 
ATOM     16  N   UNL     1       1.769   0.964   0.255  1.00  0.00    -0.305 N 
ATOM     17  O   UNL     1       0.454   2.763   0.860  1.00  0.00    -0.267 OA
ATOM     18  H   UNL     1       1.708  -0.021   0.016  1.00  0.00     0.171 HD
BRANCH  16  19
ATOM     19  C   UNL     1       3.062   1.478   0.284  1.00  0.00     0.134 A 
ATOM     20  C   UNL     1       3.367   2.796   0.614  1.00  0.00     0.047 A 
ATOM     21  N   UNL     1       4.010   0.577  -0.042  1.00  0.00    -0.218 NA
ATOM     22  C   UNL     1       4.700   3.217   0.612  1.00  0.00     0.007 A 
ATOM     23  C   UNL     1       5.300   1.027  -0.012  1.00  0.00     0.172 A 
ATOM     24  C   UNL     1       5.702   2.315   0.287  1.00  0.00     0.042 A 
BRANCH  23  25
ATOM     25  S   UNL     1       6.504  -0.202  -0.502  1.00  0.00     0.258 S 
ATOM     26  O   UNL     1       6.904  -0.907   0.696  1.00  0.00    -0.205 OA
ATOM     27  O   UNL     1       7.469   0.442  -1.369  1.00  0.00    -0.205 OA
BRANCH  25  28
ATOM     28  N   UNL     1       5.566  -1.237  -1.456  1.00  0.00    -0.205 NA
ATOM     29  H   UNL     1       4.574  -1.129  -1.219  1.00  0.00     0.142 HD
BRANCH  28  30
ATOM     30  C   UNL     1       6.014  -2.600  -1.814  1.00  0.00     0.025 C 
ATOM     31  C   UNL     1       7.490  -2.633  -2.220  1.00  0.00     0.028 C 
ATOM     32  C   UNL     1       5.162  -3.029  -3.020  1.00  0.00     0.028 C 
ATOM     33  C   UNL     1       5.745  -3.560  -0.651  1.00  0.00     0.028 C 
ENDBRANCH  28  30
ENDBRANCH  25  28
ENDBRANCH  23  25
ENDBRANCH  16  19
ENDBRANCH   2  15
BRANCH   5  34
ATOM     34  N   UNL     1      -3.633  -2.107   0.173  1.00  0.00    -0.362 N 
ATOM     35  H   UNL     1      -4.438  -1.474   0.230  1.00  0.00     0.162 HD
BRANCH  34  36
ATOM     36  C   UNL     1      -3.769  -3.125   1.258  1.00  0.00     0.056 C 
ATOM     37  C   UNL     1      -5.206  -3.683   1.139  1.00  0.00     0.037 C 
ATOM     38  C   UNL     1      -3.601  -2.517   2.658  1.00  0.00     0.037 C 
BRANCH  36  39
ATOM     39  C   UNL     1      -2.775  -4.293   1.042  1.00  0.00     0.183 C 
BRANCH  39  40
ATOM     40  O   UNL     1      -2.776  -4.710  -0.325  1.00  0.00    -0.394 OA
ATOM     41  H   UNL     1      -3.075  -3.932  -0.838  1.00  0.00     0.210 HD
ENDBRANCH  39  40
ENDBRANCH  36  39
ENDBRANCH  34  36
ENDBRANCH   5  34
TORSDOF 10
