REMARK SMILES O=C(Nc1cccc(N2CCC(F)(F)CC2)c1)c1ccc(NS(=O)(=O)CCO)cc1N1CCC2(CC1)CC2
REMARK SMILES IDX 22 1 21 3 30 4 18 5 29 6 19 7 20 8 31 9 32 10 36 11 33 12
REMARK SMILES IDX 35 13 34 14 37 15 38 16 2 17 3 18 1 19 4 21 5 22 17 23 6 24
REMARK SMILES IDX 8 25 7 26 9 27 10 28 16 29 11 30 15 31 12 32 13 33 14 34
REMARK SMILES IDX 23 35 24 36 25 37 26 38 27 39 28 40
REMARK H PARENT 22 2 3 20 28 41
REMARK Flexibility Score: inf
ROOT
ATOM      1  N   UNL     1      -5.182   0.934  -2.534  1.00  0.00    -0.283 N 
ATOM      2  H   UNL     1      -5.816   0.182  -2.264  1.00  0.00     0.180 HD
ENDROOT
BRANCH   1   3
ATOM      3  C   UNL     1      -3.797   0.765  -2.250  1.00  0.00     0.051 A 
ATOM      4  C   UNL     1      -2.067  -0.272  -0.856  1.00  0.00     0.052 A 
ATOM      5  C   UNL     1      -1.079   0.423  -1.602  1.00  0.00     0.063 A 
ATOM      6  C   UNL     1      -3.422  -0.081  -1.203  1.00  0.00     0.053 A 
ATOM      7  C   UNL     1      -1.478   1.268  -2.656  1.00  0.00     0.018 A 
ATOM      8  C   UNL     1      -2.825   1.436  -2.979  1.00  0.00     0.028 A 
BRANCH   4   9
ATOM      9  N   UNL     1      -1.721  -1.091   0.251  1.00  0.00    -0.371 N 
ATOM     10  C   UNL     1      -2.353  -2.435   0.296  1.00  0.00     0.117 C 
ATOM     11  C   UNL     1      -1.772  -0.311   1.517  1.00  0.00     0.117 C 
ATOM     12  C   UNL     1      -3.305  -2.601   1.484  1.00  0.00     0.028 C 
ATOM     13  C   UNL     1      -1.534  -1.233   2.717  1.00  0.00     0.028 C 
ATOM     14  C   UNL     1      -2.603  -2.310   2.798  1.00  0.00    -0.026 C 
ATOM     15  C   UNL     1      -2.373  -3.451   3.768  1.00  0.00     0.008 C 
ATOM     16  C   UNL     1      -3.422  -2.424   4.069  1.00  0.00     0.008 C 
ENDBRANCH   4   9
BRANCH   5  17
ATOM     17  C   UNL     1       0.407   0.311  -1.369  1.00  0.00     0.257 C 
ATOM     18  N   UNL     1       0.804  -0.722  -0.548  1.00  0.00    -0.322 N 
ATOM     19  O   UNL     1       1.150   1.115  -1.923  1.00  0.00    -0.269 OA
ATOM     20  H   UNL     1       0.036  -1.264  -0.155  1.00  0.00     0.170 HD
BRANCH  18  21
ATOM     21  C   UNL     1       2.105  -1.089  -0.153  1.00  0.00     0.043 A 
ATOM     22  C   UNL     1       2.219  -2.185   0.704  1.00  0.00     0.026 A 
ATOM     23  C   UNL     1       3.267  -0.425  -0.564  1.00  0.00     0.052 A 
ATOM     24  C   UNL     1       3.472  -2.606   1.136  1.00  0.00     0.004 A 
ATOM     25  C   UNL     1       4.552  -0.821  -0.144  1.00  0.00     0.039 A 
ATOM     26  C   UNL     1       4.620  -1.931   0.714  1.00  0.00     0.026 A 
BRANCH  25  27
ATOM     27  N   UNL     1       5.702  -0.159  -0.565  1.00  0.00    -0.371 N 
ATOM     28  C   UNL     1       5.678   0.691  -1.762  1.00  0.00     0.122 C 
ATOM     29  C   UNL     1       6.909  -0.161   0.271  1.00  0.00     0.122 C 
ATOM     30  C   UNL     1       7.077   0.785  -2.346  1.00  0.00     0.098 C 
ATOM     31  C   UNL     1       7.646   1.157   0.120  1.00  0.00     0.098 C 
ATOM     32  C   UNL     1       8.029   1.376  -1.328  1.00  0.00     0.251 C 
ATOM     33  F   UNL     1       8.148   2.715  -1.544  1.00  0.00    -0.207 F 
ATOM     34  F   UNL     1       9.269   0.858  -1.547  1.00  0.00    -0.207 F 
ENDBRANCH  25  27
ENDBRANCH  18  21
ENDBRANCH   5  17
ENDBRANCH   1   3
BRANCH   1  35
ATOM     35  S   UNL     1      -5.891   2.455  -2.374  1.00  0.00     0.234 S 
ATOM     36  O   UNL     1      -7.311   2.236  -2.554  1.00  0.00    -0.207 OA
ATOM     37  O   UNL     1      -5.175   3.415  -3.184  1.00  0.00    -0.207 OA
BRANCH  35  38
ATOM     38  C   UNL     1      -5.616   2.832  -0.654  1.00  0.00     0.188 C 
BRANCH  38  39
ATOM     39  C   UNL     1      -6.278   4.145  -0.298  1.00  0.00     0.174 C 
BRANCH  39  40
ATOM     40  O   UNL     1      -6.071   4.404   1.088  1.00  0.00    -0.395 OA
ATOM     41  H   UNL     1      -6.479   5.268   1.280  1.00  0.00     0.210 HD
ENDBRANCH  39  40
ENDBRANCH  38  39
ENDBRANCH  35  38
ENDBRANCH   1  35
TORSDOF 9
