REMARK SMILES O=S(=O)(CCO)Nc1ccc(-c2nc3c(N4CCC(F)(F)CC4)cccc3s2)c(N2CCC3(CC2)CC3)c1
REMARK SMILES IDX 2 1 1 2 3 3 7 4 8 6 11 7 10 8 29 9 9 10 38 11 12 12 13 13
REMARK SMILES IDX 28 14 14 15 27 16 15 17 26 18 24 19 25 20 16 21 17 22 23 23
REMARK SMILES IDX 18 24 22 25 19 26 20 27 21 28 30 29 31 30 35 31 32 32 34 33
REMARK SMILES IDX 33 34 36 35 37 36 4 37 5 38 6 39
REMARK H PARENT 7 5 6 40
REMARK Flexibility Score: inf
ROOT
ATOM      1  S   UNL     1      -5.304   0.400  -1.158  1.00  0.00     0.234 S 
ATOM      2  O   UNL     1      -6.683   0.771  -0.914  1.00  0.00    -0.207 OA
ATOM      3  O   UNL     1      -4.285   1.415  -1.312  1.00  0.00    -0.207 OA
ENDROOT
BRANCH   1   4
ATOM      4  N   UNL     1      -4.892  -0.626   0.127  1.00  0.00    -0.283 N 
ATOM      5  H   UNL     1      -5.465  -0.373   0.935  1.00  0.00     0.180 HD
BRANCH   4   6
ATOM      6  C   UNL     1      -3.502  -0.776   0.416  1.00  0.00     0.051 A 
ATOM      7  C   UNL     1      -0.754  -1.031   0.911  1.00  0.00     0.034 A 
ATOM      8  C   UNL     1      -1.430  -1.945   0.078  1.00  0.00     0.015 A 
ATOM      9  C   UNL     1      -1.465   0.055   1.484  1.00  0.00     0.049 A 
ATOM     10  C   UNL     1      -2.796  -1.819  -0.170  1.00  0.00     0.027 A 
ATOM     11  C   UNL     1      -2.845   0.157   1.222  1.00  0.00     0.053 A 
BRANCH   7  12
ATOM     12  C   UNL     1       0.681  -1.261   1.132  1.00  0.00     0.126 A 
ATOM     13  N   UNL     1       1.553  -1.440   0.163  1.00  0.00    -0.234 NA
ATOM     14  S   UNL     1       1.309  -1.439   2.717  1.00  0.00    -0.114 S 
ATOM     15  C   UNL     1       2.830  -1.671   0.675  1.00  0.00     0.105 A 
ATOM     16  C   UNL     1       2.884  -1.698   2.072  1.00  0.00     0.057 A 
ATOM     17  C   UNL     1       4.031  -1.862  -0.082  1.00  0.00     0.064 A 
ATOM     18  C   UNL     1       4.077  -1.914   2.779  1.00  0.00     0.021 A 
ATOM     19  C   UNL     1       5.218  -2.090   0.659  1.00  0.00     0.028 A 
ATOM     20  C   UNL     1       5.244  -2.113   2.050  1.00  0.00     0.004 A 
BRANCH  17  21
ATOM     21  N   UNL     1       4.152  -1.874  -1.506  1.00  0.00    -0.369 N 
ATOM     22  C   UNL     1       2.899  -2.127  -2.239  1.00  0.00     0.123 C 
ATOM     23  C   UNL     1       4.875  -0.686  -1.998  1.00  0.00     0.123 C 
ATOM     24  C   UNL     1       3.238  -2.416  -3.693  1.00  0.00     0.098 C 
ATOM     25  C   UNL     1       5.262  -0.914  -3.450  1.00  0.00     0.098 C 
ATOM     26  C   UNL     1       4.034  -1.262  -4.262  1.00  0.00     0.251 C 
ATOM     27  F   UNL     1       3.236  -0.165  -4.359  1.00  0.00    -0.207 F 
ATOM     28  F   UNL     1       4.411  -1.562  -5.534  1.00  0.00    -0.207 F 
ENDBRANCH  17  21
ENDBRANCH   7  12
BRANCH   9  29
ATOM     29  N   UNL     1      -0.795   1.047   2.230  1.00  0.00    -0.371 N 
ATOM     30  C   UNL     1      -1.455   1.570   3.443  1.00  0.00     0.117 C 
ATOM     31  C   UNL     1      -0.152   2.051   1.350  1.00  0.00     0.117 C 
ATOM     32  C   UNL     1      -1.874   3.035   3.290  1.00  0.00     0.028 C 
ATOM     33  C   UNL     1       0.417   3.209   2.177  1.00  0.00     0.028 C 
ATOM     34  C   UNL     1      -0.682   3.915   2.954  1.00  0.00    -0.026 C 
ATOM     35  C   UNL     1      -0.950   5.379   2.667  1.00  0.00     0.008 C 
ATOM     36  C   UNL     1      -0.265   4.987   3.942  1.00  0.00     0.008 C 
ENDBRANCH   9  29
ENDBRANCH   4   6
ENDBRANCH   1   4
BRANCH   1  37
ATOM     37  C   UNL     1      -5.266  -0.693  -2.564  1.00  0.00     0.188 C 
BRANCH  37  38
ATOM     38  C   UNL     1      -6.262  -1.823  -2.429  1.00  0.00     0.174 C 
BRANCH  38  39
ATOM     39  O   UNL     1      -6.139  -2.687  -3.556  1.00  0.00    -0.395 OA
ATOM     40  H   UNL     1      -6.834  -3.364  -3.477  1.00  0.00     0.210 HD
ENDBRANCH  38  39
ENDBRANCH  37  38
ENDBRANCH   1  37
TORSDOF 8
