REMARK SMILES O=S(=O)(CCO)Nc1ccc(-c2nc3cccc(N4CCC(F)(F)CC4)c3s2)c(N2CCC3(CC2)CC3)c1
REMARK SMILES IDX 2 1 1 2 3 3 7 4 8 6 11 7 10 8 29 9 9 10 38 11 12 12 28 13
REMARK SMILES IDX 13 14 27 15 14 16 18 17 15 18 17 19 16 20 19 21 20 22 26 23
REMARK SMILES IDX 21 24 25 25 22 26 23 27 24 28 30 29 31 30 35 31 32 32 34 33
REMARK SMILES IDX 33 34 36 35 37 36 4 37 5 38 6 39
REMARK H PARENT 7 5 6 40
REMARK Flexibility Score: inf
ROOT
ATOM      1  S   UNL     1      -4.272   4.410   0.188  1.00  0.00     0.234 S 
ATOM      2  O   UNL     1      -2.909   4.744  -0.170  1.00  0.00    -0.207 OA
ATOM      3  O   UNL     1      -5.249   4.006  -0.800  1.00  0.00    -0.207 OA
ENDROOT
BRANCH   1   4
ATOM      4  N   UNL     1      -4.295   3.194   1.380  1.00  0.00    -0.283 N 
ATOM      5  H   UNL     1      -5.179   2.688   1.275  1.00  0.00     0.180 HD
BRANCH   4   6
ATOM      6  C   UNL     1      -3.178   2.296   1.350  1.00  0.00     0.051 A 
ATOM      7  C   UNL     1      -0.958   0.578   1.187  1.00  0.00     0.034 A 
ATOM      8  C   UNL     1      -0.908   1.772   1.938  1.00  0.00     0.015 A 
ATOM      9  C   UNL     1      -2.148   0.240   0.501  1.00  0.00     0.049 A 
ATOM     10  C   UNL     1      -2.006   2.630   2.013  1.00  0.00     0.027 A 
ATOM     11  C   UNL     1      -3.244   1.125   0.596  1.00  0.00     0.053 A 
BRANCH   7  12
ATOM     12  C   UNL     1       0.243  -0.262   1.187  1.00  0.00     0.126 A 
ATOM     13  S   UNL     1       1.627   0.244   0.309  1.00  0.00    -0.111 S 
ATOM     14  N   UNL     1       0.380  -1.385   1.854  1.00  0.00    -0.236 NA
ATOM     15  C   UNL     1       2.485  -1.178   0.797  1.00  0.00     0.078 A 
ATOM     16  C   UNL     1       1.638  -1.921   1.630  1.00  0.00     0.084 A 
ATOM     17  C   UNL     1       3.799  -1.614   0.483  1.00  0.00     0.056 A 
ATOM     18  C   UNL     1       2.097  -3.135   2.178  1.00  0.00     0.030 A 
ATOM     19  C   UNL     1       4.208  -2.837   1.057  1.00  0.00     0.027 A 
ATOM     20  C   UNL     1       3.381  -3.586   1.887  1.00  0.00     0.004 A 
BRANCH  17  21
ATOM     21  N   UNL     1       4.753  -0.963  -0.341  1.00  0.00    -0.370 N 
ATOM     22  C   UNL     1       5.230   0.308   0.222  1.00  0.00     0.123 C 
ATOM     23  C   UNL     1       4.344  -0.881  -1.750  1.00  0.00     0.123 C 
ATOM     24  C   UNL     1       6.468   0.738  -0.550  1.00  0.00     0.098 C 
ATOM     25  C   UNL     1       5.557  -0.485  -2.577  1.00  0.00     0.098 C 
ATOM     26  C   UNL     1       6.147   0.798  -2.029  1.00  0.00     0.251 C 
ATOM     27  F   UNL     1       7.278   1.101  -2.720  1.00  0.00    -0.207 F 
ATOM     28  F   UNL     1       5.282   1.822  -2.259  1.00  0.00    -0.207 F 
ENDBRANCH  17  21
ENDBRANCH   7  12
BRANCH   9  29
ATOM     29  N   UNL     1      -2.380  -0.906  -0.281  1.00  0.00    -0.371 N 
ATOM     30  C   UNL     1      -1.476  -1.112  -1.426  1.00  0.00     0.117 C 
ATOM     31  C   UNL     1      -2.611  -2.128   0.515  1.00  0.00     0.117 C 
ATOM     32  C   UNL     1      -2.094  -2.149  -2.374  1.00  0.00     0.028 C 
ATOM     33  C   UNL     1      -3.245  -3.204  -0.381  1.00  0.00     0.028 C 
ATOM     34  C   UNL     1      -2.406  -3.433  -1.625  1.00  0.00    -0.026 C 
ATOM     35  C   UNL     1      -1.375  -4.541  -1.616  1.00  0.00     0.008 C 
ATOM     36  C   UNL     1      -2.634  -4.696  -2.424  1.00  0.00     0.008 C 
ENDBRANCH   9  29
ENDBRANCH   4   6
ENDBRANCH   1   4
BRANCH   1  37
ATOM     37  C   UNL     1      -4.942   5.787   1.099  1.00  0.00     0.188 C 
BRANCH  37  38
ATOM     38  C   UNL     1      -3.969   6.289   2.145  1.00  0.00     0.174 C 
BRANCH  38  39
ATOM     39  O   UNL     1      -2.928   7.065   1.558  1.00  0.00    -0.395 OA
ATOM     40  H   UNL     1      -2.431   6.486   0.943  1.00  0.00     0.210 HD
ENDBRANCH  38  39
ENDBRANCH  37  38
ENDBRANCH   1  37
TORSDOF 8
