REMARK SMILES O=S(=O)(CCO)Nc1ccc(-c2ccnc(N3CCC(F)(F)CC3)c2)c(N2CCC3(CC2)CC3)c1
REMARK SMILES IDX 2 1 1 2 3 3 7 4 8 6 11 7 10 8 26 9 9 10 35 11 12 12 25 13
REMARK SMILES IDX 13 14 16 15 14 16 15 17 17 18 18 19 24 20 19 21 23 22 20 23
REMARK SMILES IDX 21 24 22 25 27 26 28 27 32 28 29 29 31 30 30 31 33 32 34 33
REMARK SMILES IDX 4 34 5 35 6 36
REMARK H PARENT 7 5 6 37
REMARK Flexibility Score: inf
ROOT
ATOM      1  S   UNL     1      -4.785   2.870  -0.361  1.00  0.00     0.234 S 
ATOM      2  O   UNL     1      -3.789   2.807   0.684  1.00  0.00    -0.207 OA
ATOM      3  O   UNL     1      -6.189   2.661  -0.072  1.00  0.00    -0.207 OA
ENDROOT
BRANCH   1   4
ATOM      4  N   UNL     1      -4.419   1.765  -1.593  1.00  0.00    -0.283 N 
ATOM      5  H   UNL     1      -5.183   1.090  -1.665  1.00  0.00     0.180 HD
BRANCH   4   6
ATOM      6  C   UNL     1      -3.112   1.192  -1.582  1.00  0.00     0.051 A 
ATOM      7  C   UNL     1      -0.525   0.105  -1.459  1.00  0.00     0.005 A 
ATOM      8  C   UNL     1      -0.781   1.325  -2.124  1.00  0.00     0.013 A 
ATOM      9  C   UNL     1      -1.599  -0.578  -0.816  1.00  0.00     0.047 A 
ATOM     10  C   UNL     1      -2.061   1.870  -2.178  1.00  0.00     0.027 A 
ATOM     11  C   UNL     1      -2.886  -0.008  -0.904  1.00  0.00     0.053 A 
BRANCH   7  12
ATOM     12  C   UNL     1       0.852  -0.430  -1.512  1.00  0.00    -0.011 A 
ATOM     13  C   UNL     1       1.931   0.290  -0.980  1.00  0.00     0.055 A 
ATOM     14  C   UNL     1       1.125  -1.659  -2.111  1.00  0.00     0.029 A 
ATOM     15  C   UNL     1       3.228  -0.225  -1.040  1.00  0.00     0.129 A 
ATOM     16  C   UNL     1       2.434  -2.099  -2.146  1.00  0.00     0.114 A 
ATOM     17  N   UNL     1       3.477  -1.411  -1.633  1.00  0.00    -0.239 NA
BRANCH  15  18
ATOM     18  N   UNL     1       4.293   0.530  -0.489  1.00  0.00    -0.356 N 
ATOM     19  C   UNL     1       4.182   0.620   0.977  1.00  0.00     0.124 C 
ATOM     20  C   UNL     1       5.607   0.042  -0.945  1.00  0.00     0.124 C 
ATOM     21  C   UNL     1       5.224   1.598   1.494  1.00  0.00     0.098 C 
ATOM     22  C   UNL     1       6.683   1.010  -0.484  1.00  0.00     0.098 C 
ATOM     23  C   UNL     1       6.598   1.186   1.015  1.00  0.00     0.251 C 
ATOM     24  F   UNL     1       7.506   2.116   1.411  1.00  0.00    -0.207 F 
ATOM     25  F   UNL     1       6.958   0.027   1.629  1.00  0.00    -0.207 F 
ENDBRANCH  15  18
ENDBRANCH   7  12
BRANCH   9  26
ATOM     26  N   UNL     1      -1.392  -1.770  -0.101  1.00  0.00    -0.371 N 
ATOM     27  C   UNL     1      -0.473  -1.670   1.056  1.00  0.00     0.117 C 
ATOM     28  C   UNL     1      -2.473  -2.760  -0.004  1.00  0.00     0.117 C 
ATOM     29  C   UNL     1      -1.039  -2.368   2.300  1.00  0.00     0.028 C 
ATOM     30  C   UNL     1      -1.936  -4.058   0.611  1.00  0.00     0.028 C 
ATOM     31  C   UNL     1      -1.396  -3.815   2.011  1.00  0.00    -0.026 C 
ATOM     32  C   UNL     1      -0.559  -4.911   2.640  1.00  0.00     0.008 C 
ATOM     33  C   UNL     1      -1.942  -4.646   3.155  1.00  0.00     0.008 C 
ENDBRANCH   9  26
ENDBRANCH   4   6
ENDBRANCH   1   4
BRANCH   1  34
ATOM     34  C   UNL     1      -4.631   4.418  -1.225  1.00  0.00     0.188 C 
BRANCH  34  35
ATOM     35  C   UNL     1      -5.008   5.562  -0.308  1.00  0.00     0.174 C 
BRANCH  35  36
ATOM     36  O   UNL     1      -4.869   6.790  -1.018  1.00  0.00    -0.395 OA
ATOM     37  H   UNL     1      -5.118   7.505  -0.404  1.00  0.00     0.210 HD
ENDBRANCH  35  36
ENDBRANCH  34  35
ENDBRANCH   1  34
TORSDOF 8
