REMARK SMILES CC(C)(C)NS(=O)(=O)c1cccc(C(=O)N2CC3(CCC4(CC4)CC3)c3cc(NS(C)(=O)=O)ccc32)c1
REMARK SMILES IDX 13 1 37 2 9 3 10 4 11 5 12 6 14 7 15 8 16 9 36 10 35 11
REMARK SMILES IDX 26 12 34 13 27 14 18 15 17 16 28 17 19 18 25 19 20 20 24 21
REMARK SMILES IDX 21 22 22 23 23 24 29 25 30 27 31 28 32 29 33 30 6 31 7 32
REMARK SMILES IDX 8 33 5 34 2 36 1 37 3 38 4 39
REMARK H PARENT 29 26 5 35
REMARK Flexibility Score: inf
ROOT
ATOM      1  C   UNL     1       1.861   0.035  -1.448  1.00  0.00     0.041 A 
ATOM      2  C   UNL     1       2.480  -0.274  -0.236  1.00  0.00     0.035 A 
ATOM      3  C   UNL     1       3.472  -1.258  -0.216  1.00  0.00     0.083 A 
ATOM      4  C   UNL     1       3.838  -1.932  -1.385  1.00  0.00     0.022 A 
ATOM      5  C   UNL     1       3.231  -1.594  -2.596  1.00  0.00     0.002 A 
ATOM      6  C   UNL     1       2.248  -0.604  -2.632  1.00  0.00     0.014 A 
ENDROOT
BRANCH   1   7
ATOM      7  C   UNL     1       0.819   1.080  -1.506  1.00  0.00     0.258 C 
ATOM      8  O   UNL     1       1.104   2.097  -2.130  1.00  0.00    -0.269 OA
BRANCH   7   9
ATOM      9  N   UNL     1      -0.384   0.809  -0.871  1.00  0.00    -0.307 N 
ATOM     10  C   UNL     1      -1.464   1.701  -0.765  1.00  0.00     0.048 A 
ATOM     11  C   UNL     1      -1.532   3.027  -1.161  1.00  0.00     0.029 A 
ATOM     12  C   UNL     1      -2.557   1.079  -0.161  1.00  0.00    -0.014 A 
ATOM     13  C   UNL     1      -2.720   3.736  -0.945  1.00  0.00     0.029 A 
ATOM     14  C   UNL     1      -3.743   1.779   0.053  1.00  0.00     0.033 A 
ATOM     15  C   UNL     1      -2.267  -0.371   0.163  1.00  0.00     0.016 C 
ATOM     16  C   UNL     1      -0.767  -0.467  -0.237  1.00  0.00     0.138 C 
ATOM     17  C   UNL     1      -3.824   3.114  -0.352  1.00  0.00     0.049 A 
ATOM     18  C   UNL     1      -2.474  -0.671   1.664  1.00  0.00     0.014 C 
ATOM     19  C   UNL     1      -3.145  -1.305  -0.701  1.00  0.00     0.014 C 
ATOM     20  C   UNL     1      -2.250  -2.148   1.993  1.00  0.00     0.008 C 
ATOM     21  C   UNL     1      -2.941  -2.783  -0.360  1.00  0.00     0.008 C 
ATOM     22  C   UNL     1      -3.124  -3.019   1.121  1.00  0.00    -0.030 C 
ATOM     23  C   UNL     1      -3.405  -4.431   1.584  1.00  0.00     0.007 C 
ATOM     24  C   UNL     1      -4.498  -3.400   1.627  1.00  0.00     0.007 C 
BRANCH  17  25
ATOM     25  N   UNL     1      -5.045   3.812  -0.130  1.00  0.00    -0.284 N 
ATOM     26  H   UNL     1      -5.688   3.429   0.563  1.00  0.00     0.180 HD
BRANCH  25  27
ATOM     27  S   UNL     1      -5.855   4.545  -1.409  1.00  0.00     0.229 S 
ATOM     28  C   UNL     1      -6.126   3.184  -2.528  1.00  0.00     0.183 C 
ATOM     29  O   UNL     1      -7.145   4.931  -0.876  1.00  0.00    -0.207 OA
ATOM     30  O   UNL     1      -4.993   5.511  -2.053  1.00  0.00    -0.207 OA
ENDBRANCH  25  27
ENDBRANCH  17  25
ENDBRANCH   7   9
ENDBRANCH   1   7
BRANCH   3  31
ATOM     31  S   UNL     1       4.213  -1.686   1.336  1.00  0.00     0.241 S 
ATOM     32  O   UNL     1       3.134  -1.732   2.301  1.00  0.00    -0.207 OA
ATOM     33  O   UNL     1       5.083  -2.821   1.136  1.00  0.00    -0.207 OA
BRANCH  31  34
ATOM     34  N   UNL     1       5.121  -0.347   1.733  1.00  0.00    -0.206 NA
ATOM     35  H   UNL     1       4.722   0.206   2.491  1.00  0.00     0.141 HD
BRANCH  34  36
ATOM     36  C   UNL     1       6.310   0.185   1.038  1.00  0.00     0.025 C 
ATOM     37  C   UNL     1       5.868   1.218  -0.003  1.00  0.00     0.028 C 
ATOM     38  C   UNL     1       7.172  -0.896   0.386  1.00  0.00     0.028 C 
ATOM     39  C   UNL     1       7.156   0.897   2.110  1.00  0.00     0.028 C 
ENDBRANCH  34  36
ENDBRANCH  31  34
ENDBRANCH   3  31
TORSDOF 7
