REMARK SMILES O=S(=O)(CCO)Nc1ccc(-c2ncccc2N2CCC(F)(F)CC2)c(N2CCC3(CC2)CC3)c1
REMARK SMILES IDX 2 1 1 2 3 3 7 4 8 6 11 7 10 8 26 9 9 10 35 11 12 12 13 13
REMARK SMILES IDX 17 14 14 15 16 16 15 17 18 18 19 19 25 20 20 21 24 22 21 23
REMARK SMILES IDX 22 24 23 25 27 26 28 27 32 28 29 29 31 30 30 31 33 32 34 33
REMARK SMILES IDX 4 34 5 35 6 36
REMARK H PARENT 7 5 6 37
REMARK Flexibility Score: inf
ROOT
ATOM      1  S   UNL     1       1.940   4.333   1.171  1.00  0.00     0.234 S 
ATOM      2  O   UNL     1       2.486   5.666   1.328  1.00  0.00    -0.207 OA
ATOM      3  O   UNL     1       0.921   3.836   2.069  1.00  0.00    -0.207 OA
ENDROOT
BRANCH   1   4
ATOM      4  N   UNL     1       1.395   4.246  -0.420  1.00  0.00    -0.283 N 
ATOM      5  H   UNL     1       1.900   4.878  -1.041  1.00  0.00     0.180 HD
BRANCH   4   6
ATOM      6  C   UNL     1       0.987   2.991  -0.960  1.00  0.00     0.051 A 
ATOM      7  C   UNL     1       0.271   0.481  -2.014  1.00  0.00     0.026 A 
ATOM      8  C   UNL     1       1.282   1.266  -2.608  1.00  0.00     0.015 A 
ATOM      9  C   UNL     1      -0.433   0.995  -0.888  1.00  0.00     0.048 A 
ATOM     10  C   UNL     1       1.642   2.507  -2.085  1.00  0.00     0.027 A 
ATOM     11  C   UNL     1      -0.049   2.254  -0.383  1.00  0.00     0.053 A 
BRANCH   7  12
ATOM     12  C   UNL     1      -0.014  -0.846  -2.603  1.00  0.00     0.096 A 
ATOM     13  N   UNL     1      -0.570  -0.743  -3.851  1.00  0.00    -0.254 NA
ATOM     14  C   UNL     1       0.217  -2.082  -1.948  1.00  0.00     0.063 A 
ATOM     15  C   UNL     1      -0.974  -1.875  -4.455  1.00  0.00     0.112 A 
ATOM     16  C   UNL     1      -0.248  -3.219  -2.635  1.00  0.00     0.030 A 
ATOM     17  C   UNL     1      -0.849  -3.124  -3.888  1.00  0.00     0.022 A 
BRANCH  14  18
ATOM     18  N   UNL     1       0.880  -2.248  -0.734  1.00  0.00    -0.369 N 
ATOM     19  C   UNL     1       0.411  -3.251   0.224  1.00  0.00     0.123 C 
ATOM     20  C   UNL     1       2.065  -1.454  -0.413  1.00  0.00     0.123 C 
ATOM     21  C   UNL     1       0.808  -2.839   1.630  1.00  0.00     0.098 C 
ATOM     22  C   UNL     1       3.008  -2.286   0.437  1.00  0.00     0.098 C 
ATOM     23  C   UNL     1       2.313  -2.691   1.722  1.00  0.00     0.251 C 
ATOM     24  F   UNL     1       2.598  -1.776   2.690  1.00  0.00    -0.207 F 
ATOM     25  F   UNL     1       2.856  -3.862   2.154  1.00  0.00    -0.207 F 
ENDBRANCH  14  18
ENDBRANCH   7  12
BRANCH   9  26
ATOM     26  N   UNL     1      -1.496   0.268  -0.307  1.00  0.00    -0.371 N 
ATOM     27  C   UNL     1      -1.743   0.450   1.137  1.00  0.00     0.117 C 
ATOM     28  C   UNL     1      -2.736   0.356  -1.114  1.00  0.00     0.117 C 
ATOM     29  C   UNL     1      -2.688  -0.651   1.637  1.00  0.00     0.028 C 
ATOM     30  C   UNL     1      -3.712  -0.743  -0.673  1.00  0.00     0.028 C 
ATOM     31  C   UNL     1      -3.966  -0.674   0.821  1.00  0.00    -0.026 C 
ATOM     32  C   UNL     1      -5.162  -1.411   1.381  1.00  0.00     0.008 C 
ATOM     33  C   UNL     1      -5.171   0.092   1.325  1.00  0.00     0.008 C 
ENDBRANCH   9  26
ENDBRANCH   4   6
ENDBRANCH   1   4
BRANCH   1  34
ATOM     34  C   UNL     1       3.314   3.190   1.179  1.00  0.00     0.188 C 
BRANCH  34  35
ATOM     35  C   UNL     1       4.109   3.357   2.460  1.00  0.00     0.174 C 
BRANCH  35  36
ATOM     36  O   UNL     1       5.005   4.462   2.358  1.00  0.00    -0.395 OA
ATOM     37  H   UNL     1       4.468   5.281   2.325  1.00  0.00     0.210 HD
ENDBRANCH  35  36
ENDBRANCH  34  35
ENDBRANCH   1  34
TORSDOF 8
