REMARK SMILES Cc1cc(S(=O)(=O)N(C)C)ccc1OCc1cccc(CN(C)S(=O)(=O)c2ccc(C(C)(C)C)cc2)c1
REMARK SMILES IDX 16 1 37 2 20 3 19 4 18 5 17 6 15 7 14 8 13 9 4 10 3 11 11 12
REMARK SMILES IDX 2 13 12 14 1 15 5 16 6 17 7 18 8 19 9 20 10 21 21 22 22 23
REMARK SMILES IDX 23 24 24 25 25 26 26 27 27 28 28 29 36 30 29 31 35 32 30 33
REMARK SMILES IDX 31 34 32 35 33 36 34 37
REMARK H PARENT
REMARK Flexibility Score: inf
ROOT
ATOM      1  C   UNL     1       1.455  -0.033  -0.783  1.00  0.00    -0.010 A 
ATOM      2  C   UNL     1       0.228  -0.022  -0.104  1.00  0.00     0.012 A 
ATOM      3  C   UNL     1      -0.985   0.113  -0.799  1.00  0.00    -0.032 A 
ATOM      4  C   UNL     1      -0.960   0.233  -2.194  1.00  0.00     0.005 A 
ATOM      5  C   UNL     1       0.253   0.209  -2.881  1.00  0.00     0.001 A 
ATOM      6  C   UNL     1       1.452   0.070  -2.180  1.00  0.00     0.007 A 
ENDROOT
BRANCH   1   7
ATOM      7  C   UNL     1       2.744  -0.223  -0.014  1.00  0.00     0.265 C 
BRANCH   7   8
ATOM      8  O   UNL     1       3.769   0.590  -0.586  1.00  0.00    -0.489 OA
BRANCH   8   9
ATOM      9  C   UNL     1       5.021   0.522  -0.034  1.00  0.00     0.122 A 
ATOM     10  C   UNL     1       7.642   0.527   0.937  1.00  0.00     0.083 A 
ATOM     11  C   UNL     1       7.306   1.344  -0.145  1.00  0.00     0.029 A 
ATOM     12  C   UNL     1       6.683  -0.282   1.545  1.00  0.00     0.025 A 
ATOM     13  C   UNL     1       5.993   1.344  -0.639  1.00  0.00    -0.008 A 
ATOM     14  C   UNL     1       5.373  -0.283   1.056  1.00  0.00     0.048 A 
ATOM     15  C   UNL     1       5.635   2.228  -1.803  1.00  0.00     0.048 C 
BRANCH  10  16
ATOM     16  S   UNL     1       9.312   0.543   1.540  1.00  0.00     0.242 S 
ATOM     17  O   UNL     1       9.679   1.928   1.744  1.00  0.00    -0.207 OA
ATOM     18  O   UNL     1       9.426  -0.430   2.607  1.00  0.00    -0.207 OA
BRANCH  16  19
ATOM     19  N   UNL     1      10.203  -0.060   0.206  1.00  0.00    -0.204 NA
ATOM     20  C   UNL     1       9.914  -1.467  -0.153  1.00  0.00     0.124 C 
ATOM     21  C   UNL     1      11.659   0.177   0.336  1.00  0.00     0.124 C 
ENDBRANCH  16  19
ENDBRANCH  10  16
ENDBRANCH   8   9
ENDBRANCH   7   8
ENDBRANCH   1   7
BRANCH   3  22
ATOM     22  C   UNL     1      -2.293   0.135  -0.039  1.00  0.00     0.137 C 
BRANCH  22  23
ATOM     23  N   UNL     1      -2.519  -1.100   0.750  1.00  0.00    -0.197 NA
ATOM     24  C   UNL     1      -2.792  -2.289  -0.082  1.00  0.00     0.125 C 
BRANCH  23  25
ATOM     25  S   UNL     1      -3.461  -0.923   2.154  1.00  0.00     0.243 S 
ATOM     26  O   UNL     1      -3.546  -2.211   2.811  1.00  0.00    -0.207 OA
ATOM     27  O   UNL     1      -2.991   0.244   2.869  1.00  0.00    -0.207 OA
BRANCH  25  28
ATOM     28  C   UNL     1      -5.077  -0.544   1.510  1.00  0.00     0.082 A 
ATOM     29  C   UNL     1      -5.972  -1.575   1.236  1.00  0.00     0.022 A 
ATOM     30  C   UNL     1      -5.460   0.785   1.338  1.00  0.00     0.022 A 
ATOM     31  C   UNL     1      -7.245  -1.270   0.745  1.00  0.00     0.005 A 
ATOM     32  C   UNL     1      -6.737   1.082   0.847  1.00  0.00     0.005 A 
ATOM     33  C   UNL     1      -7.655   0.063   0.534  1.00  0.00    -0.043 A 
BRANCH  33  34
ATOM     34  C   UNL     1      -9.068   0.357  -0.004  1.00  0.00    -0.013 C 
ATOM     35  C   UNL     1      -9.252  -0.324  -1.378  1.00  0.00     0.016 C 
ATOM     36  C   UNL     1     -10.122  -0.191   0.981  1.00  0.00     0.016 C 
ATOM     37  C   UNL     1      -9.362   1.862  -0.199  1.00  0.00     0.016 C 
ENDBRANCH  33  34
ENDBRANCH  25  28
ENDBRANCH  23  25
ENDBRANCH  22  23
ENDBRANCH   3  22
TORSDOF 10
